# MODFLOW2000 River Package
PARAMETER  0  0
       855         0
       855         0
         1         2        78 921.00885 49973.344  918.0089
         1        19        65 918.34979 18321.197  915.3498
         1         2        77 919.61487 42696.465  916.6149
         1         1        76 917.00427 37143.570  914.0043
         1         1        78 938.48798 14767.986  935.4880
         1         1        77 919.88489 14107.713  916.8849
         1         7        72 913.12567 63217.762  910.1257
         1         6        72 915.37506 8575.2266  912.3751
         1         2        75 921.37415 42074.934  918.3741
         1         3        75 920.37360 33744.996  917.3736
         1         4        75 923.70880 37135.629  920.7088
         1         5        74 938.19165 20421.350  935.1917
         1         5        73 930.02338 31073.342  927.0234
         1         6        73 917.74158 36184.176  914.7416
         1         7        73 915.43018 35221.320  912.4302
         1         8        73 923.52405 22020.197  920.5240
         1         8        72 931.53125 43972.148  928.5313
         1         4        74 914.93597 25711.826  911.9360
         1         3        73 912.65369 39789.246  909.6537
         1         4        73 912.65369 46394.051  909.6537
         1        30        34 933.88611 38671.051  930.8861
         1        30        33 926.77960 50430.039  923.7796
         1        31        33 932.17120 36815.996  929.1712
         1        32        32 931.33881 35017.672  928.3388
         1        33        32 926.35535 41523.074  923.3553
         1         1        50 924.15265 25879.297  921.1526
         1         2        50 932.96631 12337.875  929.9663
         1         1        49 925.06555 48608.215  922.0656
         1         2        49 933.67224 21760.193  930.6722
         1         2        48 922.86005 14320.357  919.8600
         1         3        48 932.06079 42765.777  929.0608
         1         3        47 928.87463 15095.562  925.8746
         1         4        47 926.12146 23158.598  923.1215
         1         4        46 933.60608 20173.844  930.6061
         1         5        46 933.60608 14541.837  930.6061
         1         5        47 926.98071 22474.809  923.9807
         1        97         4 943.82037 34815.605  940.8204
         1        98         4 953.88916 6242.1914  950.8892
         1        98         3 946.59747 15698.243  943.5975
         1        97         3 946.09729 35517.098  943.0973
         1        96         3 953.22437 26627.279  950.2244
         1        96         2 947.78705 9359.5303  944.7870
         1        95         2 948.61877 41211.590  945.6188
         1        94         1 948.61365 36319.723  945.6136
         1         7        71 914.47223 34602.660  911.4722
         1         7        70 924.44348 19628.791  921.4435
         1         8        70 918.54883 55090.449  915.5488
         1         8        69 917.72302 70836.492  914.7230
         1         8        68 922.75385 28185.248  919.7538
         1         9        70 915.62372 43260.738  912.6237
         1         9        69 932.61639 26906.305  929.6164
         1        10        69 916.91290 29656.447  913.9129
         1        10        70 914.96552 21656.727  911.9655
         1        11        70 915.44531 45977.758  912.4453
         1        11        69 918.33289 12554.920  915.3329
         1        12        69 925.00317 35813.898  922.0032
         1        13        69 919.72937 28479.422  916.7294
         1        13        68 915.81219 38233.027  912.8122
         1        13        67 915.81219 38248.363  912.8122
         1        14        67 918.11340 33186.141  915.1134
         1        15        67 930.85992 28871.242  927.8599
         1        14        66 919.12567 41260.898  916.1257
         1        14        65 917.27576 37657.043  914.2758
         1        15        65 917.27576 38446.281  914.2758
         1        16        65 918.51459 21168.586  915.5146
         1        16        66 925.87909 17074.896  922.8791
         1        17        66 938.47949 35080.195  935.4795
         1         6        47 927.22125 43443.605  924.2213
         1         7        47 936.36652 9799.1504  933.3665
         1        18        65 917.95905 33450.594  914.9590
         1        17        65 922.05164 11896.916  919.0516
         1        17        64 922.35773 34695.504  919.3577
         1        17        63 935.07703 23346.572  932.0770
         1        18        63 919.63361 12936.365  916.6336
         1         7        46 932.55200 22908.557  929.5520
         1        18        62 930.35608 28503.826  927.3561
         1        18        64 917.98468 45035.395  914.9847
         1        19        62 934.87756 13404.265  931.8776
         1        19        63 925.64246 44274.996  922.6425
         1        34        60 919.38586 53399.621  916.3859
         1        34        63 920.65405 46316.223  917.6541
         1        35        60 926.13989 15091.967  923.1399
         1        35        59 927.74988 32311.410  924.7499
         1        34        59 927.74988 35545.801  924.7499
         1        33        59 925.05994 33268.098  922.0599
         1        32        59 930.14655 18414.545  927.1465
         1        19        64 917.98468 26650.584  914.9847
         1        20        64 921.64716 17450.182  918.6472
         1        20        65 915.73547 40413.953  912.7355
         1        21        65 918.67310 38765.289  915.6731
         1        22        65 917.60059 41919.875  914.6006
         1        23        65 927.61530 5470.2900  924.6153
         1        23        64 929.77136 38693.531  926.7714
         1        24        64 925.54297 37184.234  922.5430
         1        25        64 932.69067 19915.012  929.6907
         1        25        65 920.10828 41492.027  917.1083
         1        33        30 930.55182 35456.000  927.5518
         1        33        29 933.78772 19892.590  930.7877
         1        34        29 939.14941 27396.559  936.1494
         1        34        30 928.51563 14785.587  925.5156
         1        35        30 928.60486 38410.316  925.6049
         1        15        46 926.14117 46514.246  923.1412
         1        16        46 928.24622 36283.984  925.2462
         1        11        45 925.87225 54178.496  922.8723
         1        17        45 930.75787 35844.660  927.7579
         1        12        45 927.21399 48554.238  924.2140
         1         8        45 927.49927 45666.418  924.4993
         1        12        46 933.88391 10832.710  930.8839
         1        13        46 935.78827 30215.953  932.7883
         1         9        45 927.49927 25054.311  924.4993
         1        13        45 926.23651 36900.941  923.2365
         1        10        46 924.53033 41505.914  921.5303
         1         6        46 929.25934 18194.494  926.2593
         1        11        44 933.36450 29264.160  930.3645
         1         6        45 933.96265 25052.992  930.9626
         1        13        44 923.23682 34448.816  920.2368
         1        11        47 923.36115 39239.660  920.3611
         1         7        45 923.58917 29072.758  920.5892
         1        11        46 923.36115 48319.273  920.3611
         1        13        43 937.03162 40680.254  934.0316
         1        60        54 932.23468 42721.574  929.2347
         1        61        53 944.62054 15031.728  941.6205
         1        61        54 938.87610 20756.611  935.8761
         1        62        53 944.62054 13783.545  941.6205
         1        34        62 929.87811 39690.340  926.8781
         1        33        62 924.19006 20113.637  921.1901
         1        33        61 928.09631 30192.174  925.0963
         1        34        61 920.24286 31003.941  917.2429
         1        25        66 919.56549 40513.914  916.5655
         1        25        67 938.19525 30156.988  935.1953
         1        26        67 923.38690 26853.281  920.3869
         1        33        31 930.55182 34916.148  927.5518
         1        17        44 934.59161 26150.205  931.5916
         1        16        44 937.90430 10767.446  934.9043
         1        16        43 927.47754 35159.129  924.4775
         1        16        42 930.43549 45229.914  927.4355
         1        16        41 933.75128 17278.221  930.7513
         1        26        68 935.74493 14603.034  932.7449
         1        27        68 935.74493 8874.3691  932.7449
         1        27        67 931.63397 42871.195  928.6340
         1        14        44 926.37201 37987.035  923.3720
         1        14        45 928.19843 26644.184  925.1984
         1        15        45 929.75574 12168.667  926.7557
         1        27        66 936.99414 6637.8965  933.9941
         1        26        66 918.82587 37750.363  915.8259
         1        26        65 921.14465 34014.324  918.1447
         1        18        42 936.12457 14462.563  933.1246
         1        18        41 927.34839 34380.652  924.3484
         1        26        64 932.69067 41056.840  929.6907
         1        18        40 934.30151 53678.676  931.3015
         1        19        40 927.85461 46103.566  924.8546
         1        20        40 932.24811 25141.455  929.2481
         1        20        39 928.85052 41102.336  925.8505
         1        17        42 929.00281 33413.973  926.0028
         1        27        63 931.10107 37682.012  928.1011
         1        28        63 935.15747 24328.412  932.1575
         1        28        64 922.17401 32386.385  919.1740
         1        27        65 920.42688 19645.408  917.4269
         1        28        65 926.94690 34071.773  923.9469
         1        20        38 940.48816 19420.955  937.4882
         1        21        38 927.04089 37703.977  924.0409
         1        22        38 937.91998 35639.801  934.9200
         1        23        38 931.59192 35170.230  928.5919
         1        24        37 930.43787 53056.754  927.4379
         1        24        36 941.96619 35283.555  938.9662
         1        24        35 940.89978 5727.0854  937.8998
         1        25        36 928.11273 28576.027  925.1127
         1        29        65 921.11731 16660.723  918.1173
         1        26        36 930.10809 39680.387  927.1081
         1        27        37 934.63165 38085.320  931.6317
         1        28        37 926.25781 43350.539  923.2578
         1        29        37 937.72357 16816.043  934.7236
         1        28        36 927.95825 34928.480  924.9583
         1        28        35 927.26410 37713.789  924.2641
         1        28        34 938.25018 37159.715  935.2502
         1        29        34 928.81866 35046.934  925.8187
         1        29        66 926.85419 35568.035  923.8542
         1        30        66 930.12610 19756.447  927.1261
         1        30        65 922.58783 33388.773  919.5878
         1        30        64 920.82135 34367.801  917.8214
         1        30        63 919.77045 43032.055  916.7704
         1        31        63 920.49353 21517.680  917.4935
         1        31        64 923.44739 25995.574  920.4474
         1        32        64 921.38000 35882.309  918.3800
         1        60        57 937.77002 7869.7681  934.7700
         1       110         7 955.47583 59234.121  952.4758
         1        60        56 941.48999 33111.938  938.4900
         1       111         7 954.43896 19437.766  951.4390
         1        60        55 932.78320 33095.406  929.7832
         1       111         6 955.90076 33135.410  952.9008
         1       112         6 956.89709 7551.1963  953.8971
         1       112         5 954.03442 65341.641  951.0344
         1       112         4 954.03442 50748.688  951.0344
         1        33        64 921.38922 35836.395  918.3892
         1        33        63 927.17615 14673.440  924.1761
         1        36        31 935.16290 38484.617  932.1629
         1        37        31 928.93463 39323.332  925.9346
         1        38        31 933.59839 24195.342  930.5984
         1        49        29 936.94342 44179.969  933.9434
         1        50        29 934.30994 34581.848  931.3099
         1        51        29 929.97119 52897.457  926.9712
         1        47        29 931.50751 36774.910  928.5075
         1        48        28 931.23639 40791.098  928.2364
         1        49        28 935.00671 13345.052  932.0067
         1        35        63 927.29584 68786.828  924.2958
         1        35        64 936.42725 20591.996  933.4272
         1        36        64 922.46704 38686.637  919.4670
         1        36        63 922.42914 52705.262  919.4291
         1        62        66 946.65607 22541.766  943.6561
         1        62        67 938.89313 17959.563  935.8931
         1        63        67 947.37012 21413.725  944.3701
         1        63        66 942.32574 38024.664  939.3257
         1        64        66 941.35242 43483.238  938.3524
         1        65        65 941.73102 15167.810  938.7310
         1       112         8 954.06848 37379.984  951.0685
         1        35        61 924.52698 38499.195  921.5270
         1       112         9 956.35498 12629.200  953.3550
         1       111         9 954.47467 30089.313  951.4747
         1       111         8 954.91644 49958.945  951.9164
         1        37        63 922.42914 26950.912  919.4291
         1        37        62 938.50293 37332.438  935.5029
         1        38        30 931.73651 26892.275  928.7365
         1        38        62 924.00049 32530.299  921.0005
         1        37        30 939.73065 9028.2324  936.7307
         1        37        29 939.73065 16492.863  936.7307
         1        38        29 931.34650 39693.719  928.3465
         1        39        29 928.27985 39114.715  925.2798
         1        40        29 928.55927 56367.336  925.5593
         1        41        28 932.16010 33145.594  929.1601
         1        41        27 932.93439 27833.719  929.9344
         1        36        61 928.87384 41203.605  925.8738
         1        36        60 922.89490 35816.531  919.8949
         1        42        27 937.63495 35156.664  934.6349
         1        43        27 940.90356 12924.148  937.9036
         1        43        28 928.81799 34266.773  925.8180
         1        36        59 927.95551 32032.934  924.9555
         1        35        58 930.92810 41991.141  927.9281
         1        35        57 932.54419 14016.506  929.5442
         1        43        29 934.66760 34144.832  931.6676
         1        43        30 938.31140 25011.463  935.3114
         1        44        29 933.05530 43539.879  930.0553
         1        36        57 936.84137 34746.211  933.8414
         1        45        28 940.63422 27629.053  937.6342
         1        37        58 923.68506 47820.848  920.6851
         1        37        59 922.34113 8545.1592  919.3411
         1        38        61 932.69806 28587.990  929.6981
         1        39        61 927.85339 27672.701  924.8534
         1        45        29 930.33789 16618.467  927.3379
         1        46        29 931.89777 20817.109  928.8978
         1        46        30 940.31622 31660.494  937.3162
         1        47        30 930.96155 23074.816  927.9615
         1        38        58 921.39868 43590.949  918.3987
         1        39        58 924.77344 34094.688  921.7734
         1        40        58 922.68146 53432.297  919.6815
         1        39        62 924.96893 77264.250  921.9689
         1        40        62 935.50232 39755.469  932.5023
         1        40        63 924.02209 78269.352  921.0221
         1        77        13 938.15771 49294.375  935.1577
         1        77        12 937.80676 33830.059  934.8068
         1        78        11 947.95789 39387.691  944.9579
         1        79        11 945.01862 36373.137  942.0186
         1        80        11 939.57043 33700.953  936.5704
         1        51        30 942.35437 31403.617  939.3544
         1        40        57 922.19623 24265.533  919.1962
         1        39        57 924.77344 24991.621  921.7734
         1        39        56 924.64673 34980.547  921.6467
         1        39        55 921.54462 74916.320  918.5446
         1        52        30 930.55042 43197.602  927.5504
         1        52        29 937.48285 31266.502  934.4828
         1        51        28 934.51599 34682.574  931.5160
         1        52        28 934.94263 19114.344  931.9426
         1        40        55 926.05176 6733.8794  923.0518
         1        40        56 925.30518 28097.064  922.3052
         1        41        55 926.05176 47122.301  923.0518
         1        42        55 920.51349 54126.656  917.5135
         1        42        54 927.32056 17188.604  924.3206
         1        43        54 940.60229 15700.323  937.6023
         1        43        55 929.15509 51815.500  926.1551
         1        53        29 932.10364 42771.906  929.1036
         1        41        63 931.00922 65788.938  928.0092
         1        54        29 932.13928 9563.1963  929.1393
         1        54        30 931.46143 50465.738  928.4614
         1        42        56 924.18768 41121.348  921.1877
         1        42        57 925.16077 25472.877  922.1608
         1        55        30 938.31689 17634.984  935.3169
         1        55        29 933.23352 35356.211  930.2335
         1        52        27 934.94263 36511.355  931.9426
         1        53        26 933.23071 30585.328  930.2307
         1        52        26 935.27136 13981.155  932.2714
         1        53        25 938.01324 38747.500  935.0132
         1        54        24 933.84631 28364.182  930.8463
         1        43        56 921.92499 32378.580  918.9250
         1        43        57 921.92499 8165.4888  918.9250
         1        44        57 923.98492 30182.846  920.9849
         1        44        58 924.92090 33513.898  921.9209
         1        44        59 923.28699 57757.043  920.2870
         1        14        46 934.04761 10648.875  931.0476
         1        45        59 937.09869 31172.832  934.0987
         1        45        58 924.18500 26346.600  921.1850
         1        46        58 924.18500 17662.053  921.1850
         1        55        28 936.31635 39482.508  933.3163
         1        54        28 942.54260 13769.180  939.5426
         1        55        27 939.05920 17566.348  936.0592
         1        46        57 927.29132 33573.484  924.2913
         1        56        28 928.63159 80673.445  925.6316
         1        46        56 925.17603 39045.840  922.1760
         1        47        55 930.09033 12522.877  927.0903
         1        47        56 930.09033 24201.410  927.0903
         1        48        56 940.74469 26004.420  937.7447
         1        48        57 927.95721 43525.527  924.9572
         1        61        66 938.64728 58675.852  935.6473
         1        48        58 942.92908 23271.166  939.9291
         1        41        64 938.82269 5871.8501  935.8227
         1        42        64 938.41559 33083.215  935.4156
         1        42        63 928.92401 6552.6167  925.9240
         1        43        63 928.92401 41096.754  925.9240
         1        49        57 926.69977 43630.750  923.6998
         1        57        28 936.48645 24117.414  933.4865
         1        57        29 944.23877 24434.486  941.2388
         1        58        29 933.11511 37724.352  930.1151
         1        49        56 924.76001 66934.453  921.7600
         1        59        29 935.24500 26884.012  932.2450
         1        43        64 929.89221 38042.293  926.8922
         1        59        28 936.60248 39906.965  933.6025
         1        60        28 933.60339 35630.188  930.6034
         1        49        55 935.87738 21990.975  932.8774
         1        60        29 942.82953 13810.511  939.8295
         1        61        28 939.55212 41884.816  936.5521
         1        62        28 936.72144 11918.618  933.7214
         1        50        57 924.32916 48604.719  921.3292
         1        50        56 924.32916 37944.914  921.3292
         1        50        55 927.40265 14856.535  924.4026
         1        51        55 929.97974 33657.164  926.9797
         1        54        23 934.79114 37225.121  931.7911
         1        51        54 930.59119 23553.174  927.5912
         1        55        24 934.70984 47376.184  931.7098
         1        52        54 930.59119 12573.329  927.5912
         1        62        27 933.86310 31898.928  930.8631
         1        52        53 937.79913 44432.617  934.7991
         1        56        25 944.41492 13385.291  941.4149
         1        56        24 933.82349 41055.031  930.8235
         1        56        23 942.09784 12680.212  939.0978
         1        57        23 933.29999 53733.645  930.3000
         1        63        27 940.62091 49853.285  937.6209
         1        63        28 932.23102 66045.617  929.2310
         1        53        53 929.28888 46939.766  926.2889
         1        64        27 933.27228 36820.211  930.2723
         1        65        27 941.10571 41604.500  938.1057
         1        65        26 939.03918 16739.332  936.0392
         1        53        54 932.80841 33030.941  929.8084
         1       112         7 956.21472 17629.564  953.2147
         1        53        55 929.49792 33604.078  926.4979
         1        66        27 930.95856 26848.426  927.9586
         1        66        26 936.36938 59673.016  933.3694
         1        53        56 931.11163 33121.820  928.1116
         1        53        57 937.33917 34130.070  934.3392
         1        44        64 934.86383 20875.615  931.8638
         1        59        57 938.85358 36744.512  935.8536
         1        44        63 933.08905 49312.629  930.0891
         1        54        57 932.97058 44589.734  929.9706
         1        55        56 935.14099 31846.053  932.1410
         1        57        24 940.26526 18345.994  937.2653
         1        58        24 933.97144 37521.793  930.9714
         1        59        24 942.27325 24609.318  939.2733
         1        59        23 938.37445 26329.205  935.3745
         1        60        24 944.60486 28318.711  941.6049
         1        65        25 941.28864 24165.518  938.2886
         1        66        25 939.75464 58362.324  936.7546
         1        66        24 939.93256 9353.8281  936.9326
         1        67        26 934.88617 46686.359  931.8862
         1        67        25 939.75464 17824.406  936.7546
         1        68        25 938.50000 37357.660  935.5000
         1        60        23 935.21570 11208.926  932.2157
         1        61        23 937.34106 25119.170  934.3411
         1        61        22 936.22772 41642.199  933.2277
         1        62        22 936.22772 35949.789  933.2277
         1        63        22 939.19769 22658.523  936.1977
         1        63        21 940.77411 36264.813  937.7741
         1        63        20 945.68195 8623.7910  942.6819
         1        64        20 939.02136 41286.996  936.0214
         1        45        63 931.54187 33540.215  928.5419
         1        56        56 941.31110 36604.574  938.3111
         1        65        19 940.53210 36906.184  937.5321
         1        65        18 934.98596 35716.332  931.9860
         1        65        17 941.87286 38807.934  938.8729
         1        65        16 946.31232 7096.9717  943.3123
         1        66        16 941.36774 12962.910  938.3677
         1        56        55 931.88098 41591.414  928.8810
         1        55        55 940.76849 30317.080  937.7685
         1        55        54 933.89221 5978.2769  930.8922
         1        54        54 933.00677 33927.441  930.0068
         1        54        53 930.74078 40740.516  927.7408
         1        46        63 939.24121 29163.564  936.2412
         1        46        64 930.17084 36368.785  927.1708
         1        46        65 931.29492 50116.785  928.2949
         1        47        65 932.25415 38178.203  929.2542
         1        55        52 932.29877 33086.996  929.2988
         1        56        53 935.21960 28651.625  932.2196
         1        57        53 934.75128 26968.857  931.7513
         1        57        54 941.42358 33255.688  938.4236
         1        57        55 934.27985 35784.391  931.2798
         1        47        66 937.44171 47168.734  934.4417
         1        48        67 933.31171 16320.849  930.3117
         1        48        66 933.31171 27253.539  930.3117
         1        69        25 935.79498 29364.621  932.7950
         1        69        26 944.88086 22495.871  941.8809
         1        70        26 936.70868 21773.449  933.7087
         1        57        56 942.51398 6301.8945  939.5140
         1        58        56 934.20880 32676.672  931.2088
         1        58        57 944.72919 25846.398  941.7292
         1        70        25 938.52435 35406.781  935.5244
         1        70        24 942.78491 14033.427  939.7849
         1        71        24 945.79431 29810.273  942.7943
         1        72        25 942.54156 27741.605  939.5416
         1        72        24 936.01074 10889.305  933.0107
         1        73        24 940.52563 41864.199  937.5256
         1        74        23 942.86890 15493.735  939.8689
         1        73        23 940.93811 18037.607  937.9381
         1        73        22 947.00238 11358.157  944.0024
         1        74        22 941.85834 38079.770  938.8583
         1        75        22 934.83649 32767.697  931.8365
         1        75        23 934.83649 11267.304  931.8365
         1        76        23 937.15674 23175.400  934.1567
         1        76        24 938.17029 52495.852  935.1703
         1        49        66 935.20935 49590.457  932.2094
         1        49        67 934.93024 56218.523  931.9302
         1        90        52 939.44818 21612.932  936.4482
         1        91        52 946.04211 28509.193  943.0421
         1        91        53 950.12512 10660.676  947.1251
         1        92        52 943.69434 37533.512  940.6943
         1        92        51 941.30005 33559.902  938.3000
         1        92        50 940.52679 37429.375  937.5268
         1        92        49 945.35999 20647.506  942.3600
         1        62        54 931.20496 39473.461  928.2050
         1        62        55 940.09186 33076.910  937.0919
         1        62        56 946.93341 21631.008  943.9334
         1        49        68 933.38690 36320.547  930.3869
         1        77        25 936.91144 27082.662  933.9114
         1        77        24 939.42847 42648.809  936.4285
         1        63        56 935.18262 34016.938  932.1826
         1        77        26 945.14789 31999.926  942.1479
         1        78        26 937.98126 17277.152  934.9813
         1        78        24 939.42847 12191.243  936.4285
         1        78        25 942.77118 35988.879  939.7712
         1        78        27 945.28027 27120.795  942.2803
         1        79        27 945.25952 15921.397  942.2595
         1        79        26 946.96497 33752.066  943.9650
         1        64        56 939.02808 33470.344  936.0281
         1        79        25 939.24103 56514.676  936.2410
         1        80        25 943.15027 36179.113  940.1503
         1        65        56 935.30707 35276.340  932.3071
         1        66        56 941.54846 15422.951  938.5485
         1        66        55 940.92810 19832.336  937.9281
         1        67        55 935.23761 34128.836  932.2376
         1        68        55 939.15302 33329.809  936.1530
         1        67        17 941.82458 38855.895  938.8246
         1        68        16 941.01520 34706.020  938.0152
         1        69        17 939.48212 34387.242  936.4821
         1        70        17 946.01129 24349.578  943.0113
         1        70        16 940.38342 11250.261  937.3834
         1        71        16 944.45514 37630.238  941.4551
         1        71        15 940.85541 34115.293  937.8554
         1        66        17 943.13434 25088.691  940.1343
         1        72        15 945.65552 32630.951  942.6555
         1        73        15 938.57861 31614.943  935.5786
         1        69        55 934.34558 34071.000  931.3456
         1        70        55 944.03406 28974.404  941.0341
         1        70        54 941.75012 10565.737  938.7501
         1        49        69 939.08191 23161.369  936.0819
         1        50        69 931.55975 39931.629  928.5598
         1        50        68 933.35248 19060.213  930.3525
         1        81        25 942.59418 25391.643  939.5942
         1        71        54 944.65381 25973.643  941.6538
         1        74        14 940.81555 36513.566  937.8156
         1        81        26 941.40356 44703.023  938.4036
         1        81        27 940.96497 33986.199  937.9650
         1        71        53 935.74261 41303.281  932.7426
         1        81        28 940.01538 45983.105  937.0154
         1        71        52 947.82410 8583.5557  944.8241
         1        82        28 938.35406 54408.363  935.3541
         1        72        53 936.83667 38590.875  933.8367
         1        83        29 939.08472 35148.051  936.0847
         1        84        29 939.07141 56494.473  936.0714
         1        72        54 942.39929 34600.504  939.3993
         1        72        55 949.82324 8824.5400  946.8232
         1        84        28 947.79175 8052.7349  944.7917
         1        51        68 940.40118 26842.498  937.4012
         1        52        68 935.15820 40906.355  932.1582
         1        73        55 946.65924 31952.867  943.6592
         1        85        29 944.86053 43963.949  941.8605