# MODFLOW2000 Well Package
         0         0
         0         0
