# MODFLOW-NWT UPW Package
        50  -1.000000e+30         0         0
  3  0  0  0  0  0
  0  0  0  0  0  0
  1.000000e+00  1.000000e+00  1.000000e+00  1.000000e+00  1.000000e+00  1.000000e+00
 0 0 0 0 0 0
 0 0 0 0 0 0
         0  500.0000(10e12.4)                   -1
         0  50.00000(10e12.4)                   -1
         0  500.0000(10e12.4)                   -1
         0  50.00000(10e12.4)                   -1
        11   1.00000(10e12.4)                   -1
  1.0000e+00  1.0000e+00  1.0000e+00  1.0000e+00  1.0000e+00  1.0000e+00  1.0000e+00  1.0000e+00  1.0000e+00  1.0000e+00
  1.0000e+00  1.0000e+00  1.0000e+00  1.0000e+00  1.0000e+00  1.0000e+00  1.0000e+00  1.0000e+00  1.0000e+00  1.0000e+00
  1.0000e+00  1.0000e+00  1.0000e+00  1.0000e+00  1.0000e+00  1.0000e+00  1.0000e+00  1.0000e+00  1.0000e+00  1.0000e+00
  1.0000e+00  1.0000e+00  1.0000e+00  1.0000e+00  1.0000e+00  1.0000e+00  1.0000e+00  1.0000e+00  1.0000e+00  1.0000e+00
  1.0000e+00  1.0000e+00  1.0000e+00  1.0000e+00  1.0000e+00  1.0000e+00  1.0000e+00  1.0000e+00  1.0000e+00  1.0000e+00
  1.0000e+00  1.0000e+00  1.0000e+00  1.0000e+00  1.0000e+00  1.0000e+00  1.0000e+00  1.0000e+00  1.0000e+00  1.0000e+00
  1.0000e+00  1.0000e+00  1.0000e+00  1.0000e+00  1.0000e+00  1.0000e+00  1.0000e+00  1.0000e+00  1.0000e+00  1.0000e+00
  1.0000e+00  1.0000e+00  1.0000e+00  1.0000e+00  1.0000e+00  1.0000e+00  1.0000e+00  1.0000e+00  1.0000e+00
  1.0000e+00  1.0000e+00  1.0000e+00  1.0000e+00  1.0000e+00  1.0000e+00  1.0000e+00  1.0000e+00  1.0000e+00  1.0000e+00
  1.0000e+00  1.0000e+00  1.0000e+00  1.0000e+00  1.0000e+00  1.0000e+00  1.0000e+00  1.0000e+00  1.0000e+00  1.0000e+00
  1.0000e+00  1.0000e+00  1.0000e+00  1.0000e+00  1.0000e+00  1.0000e+00  1.0000e+00  1.0000e+00  1.0000e+00  1.0000e+00
  1.0000e+00  1.0000e+00  1.0000e+00  1.0000e+00  1.0000e+00  1.0000e+00  1.0000e+00  1.0000e+00  1.0000e+00  1.0000e+00
  1.0000e+00  1.0000e+00  1.0000e+00  1.0000e+00  1.0000e+00  1.0000e+00  1.0000e+00  1.0000e+00  1.0000e+00  1.0000e+00
  1.0000e+00  1.0000e+00  1.0000e+00  1.0000e+00  1.0000e+00  1.0000e+00  1.0000e+00  1.0000e+00  1.0000e+00  1.0000e+00
  1.0000e+00  1.0000e+00  1.0000e+00  1.0000e+00  1.0000e+00  1.0000e+00  1.0000e+00  1.0000e+00  1.0000e+00  1.0000e+00
  1.0000e+00  1.0000e+00  1.0000e+00  1.0000e+00  1.0000e+00  1.0000e+00  1.0000e+00  1.0000e+00  1.0000e+00
  1.0000e+00  1.0000e+00  1.0000e+00  1.0000e+00  1.0000e+00  1.0000e+00  1.0000e+00  1.0000e+00  1.0000e+00  1.0000e+00
  1.0000e+00  1.0000e+00  1.0000e+00  1.0000e+00  1.0000e+00  1.0000e+00  1.0000e+00  1.0000e+00  1.0000e+00  1.0000e+00
  1.0000e+00  1.0000e+00  1.0000e+00  1.0000e+00  1.0000e+00  1.0000e+00  1.0000e+00  1.0000e+00  1.0000e+00  1.0000e+00
  1.0000e+00  1.0000e+00  1.0000e+00  1.0000e+00  1.0000e+00  1.0000e+00  1.0000e+00  1.0000e+00  1.0000e+00  1.0000e+00
  1.0000e+00  1.0000e+00  1.0000e+00  1.0000e+00  1.0000e+00  1.0000e+00  1.0000e+00  1.0000e+00  1.0000e+00  1.0000e+00
  1.0000e+00  1.0000e+00  1.0000e+00  1.0000e+00  1.0000e+00  1.0000e+00  1.0000e+00  1.0000e+00  1.0000e+00  1.0000e+00
  1.0000e+00  1.0000e+00  1.0000e+00  1.0000e+00  1.0000e+00  1.0000e+00  1.0000e+00  1.0000e+00  1.0000e+00  1.0000e+00
  1.0000e+00  1.0000e+00  1.0000e+00  1.0000e+00  1.0000e+00  1.0000e+00  1.0000e+00  1.0000e+00  1.0000e+00
  1.0000e+00  1.0000e+00  1.0000e+00  1.0000e+00  1.0000e+00  1.0000e+00  1.0000e+00  1.0000e+00  1.0000e+00  1.0000e+00
  1.0000e+00  1.0000e+00  1.0000e+00  1.0000e+00  1.0000e+00  1.0000e+00  1.0000e+00  1.0000e+00  1.0000e+00  1.0000e+00
  1.0000e+00  1.0000e+00  1.0000e+00  1.0000e+00  1.0000e+00  1.0000e+00  1.0000e+00  1.0000e+00  1.0000e+00  1.0000e+00
  1.0000e+00  1.0000e+00  1.0000e+00  1.0000e+00  1.0000e+00  1.0000e+00  1.0000e+00  1.0000e+00  1.0000e+00  1.0000e+00
  1.0000e+00  1.0000e+00  1.0000e+00  1.0000e+00  1.0000e+00  1.0000e+00  1.0000e+00  1.0000e+00  1.0000e+00  1.0000e+00
  1.0000e+00  1.0000e+00  1.0000e+00  1.0000e+00  1.0000e+00  1.0000e+00  1.0000e+00  1.0000e+00  1.0000e+00  1.0000e+00
  1.0000e+00  1.0000e+00  1.0000e+00  1.0000e+00  1.0000e+00  1.0000e+00  1.0000e+00  1.0000e+00  1.0000e+00  1.0000e+00
  1.0000e+00  1.0000e+00  1.0000e+00  1.0000e+00  1.0000e+00  1.0000e+00  1.0000e+00  1.0000e+00  1.0000e+00
  1.0000e+00  1.0000e+00  1.0000e+00  1.0000e+00  1.0000e+00  1.0000e+00  1.0000e+00  1.0000e+00  1.0000e+00  1.0000e+00
  1.0000e+00  1.0000e+00  1.0000e+00  1.0000e+00  1.0000e+00  1.0000e+00  1.0000e+00  1.0000e+00  1.0000e+00  1.0000e+00
  1.0000e+00  1.0000e+00  1.0000e+00  1.0000e+00  1.0000e+00  1.0000e+00  1.0000e+00  1.0000e+00  1.0000e+00  1.0000e+00
  1.0000e+00  1.0000e+00  1.0000e+00  1.0000e+00  1.0000e+00  1.0000e+00  1.0000e+00  1.0000e+00  1.0000e+00  1.0000e+00
  1.0000e+00  1.0000e+00  1.0000e+00  1.0000e+00  1.0000e+00  1.0000e+00  1.0000e+00  1.0000e+00  1.0000e+00  1.0000e+00
  1.0000e+00  1.0000e+00  1.0000e+00  1.0000e+00  1.0000e+00  1.0000e+00  1.0000e+00  1.0000e+00  1.0000e+00  1.0000e+00
  1.0000e+00  1.0000e+00  1.0000e+00  1.0000e+00  1.0000e+00  1.0000e+00  1.0000e+00  1.0000e+00  1.0000e+00  1.0000e+00
  1.0000e+00  1.0000e+00  1.0000e+00  1.0000e+00  1.0000e+00  1.0000e+00  1.0000e+00  1.0000e+00  1.0000e+00
  1.0000e+00  1.0000e+00  1.0000e+00  1.0000e+00  1.0000e+00  1.0000e+00  1.0000e+00  1.0000e+00  1.0000e+00  1.0000e+00
  1.0000e+00  1.0000e+00  1.0000e+00  1.0000e+00  1.0000e+00  1.0000e+00  1.0000e+00  1.0000e+00  1.0000e+00  1.0000e+00
  1.0000e+00  1.0000e+00  1.0000e+00  1.0000e+00  1.0000e+00  1.0000e+00  1.0000e+00  1.0000e+00  1.0000e+00  1.0000e+00
  1.0000e+00  1.0000e+00  1.0000e+00  1.0000e+00  1.0000e+00  1.0000e+00  1.0000e+00  1.0000e+00  1.0000e+00  1.0000e+00
  1.0000e+00  1.0000e+00  1.0000e+00  1.0000e+00  1.0000e+00  1.0000e+00  1.0000e+00  1.0000e+00  1.0000e+00  1.0000e+00
  1.0000e+00  1.0000e+00  1.0000e+00  1.0000e+00  1.0000e+00  1.0000e+00  1.0000e+00  1.0000e+00  1.0000e+00  1.0000e+00
  1.0000e+00  1.0000e+00  1.0000e+00  1.0000e+00  1.0000e+00  1.0000e+00  1.0000e+00  1.0000e+00  1.0000e+00  1.0000e+00
  1.0000e+00  1.0000e+00  1.0000e+00  1.0000e+00  1.0000e+00  1.0000e+00  1.0000e+00  1.0000e+00  1.0000e+00
  1.0000e+00  1.0000e+00  1.0000e+00  1.0000e+00  1.0000e+00  1.0000e+00  1.0000e+00  1.0000e+00  1.0000e+00  1.0000e+00
  1.0000e+00  1.0000e+00  1.0000e+00  1.0000e+00  1.0000e+00  1.0000e+00  1.0000e+00  1.0000e+00  1.0000e+00  1.0000e+00
  1.0000e+00  1.0000e+00  1.0000e+00  1.0000e+00  1.0000e+00  1.0000e+00  1.0000e+00  1.0000e+00  1.0000e+00  1.0000e+00
  1.0000e+00  1.0000e+00  1.0000e+00  1.0000e+00  1.0000e+00  1.0000e+00  1.0000e+00  1.0000e+00  1.0000e+00  1.0000e+00
  1.0000e+00  1.0000e+00  1.0000e+00  1.0000e+00  1.0000e+00  1.0000e+00  1.0000e+00  1.0000e+00  1.0000e+00  1.0000e+00
  1.0000e+00  1.0000e+00  1.0000e+00  1.0000e+00  1.0000e+00  1.0000e+00  1.0000e+00  1.0000e+00  1.0000e+00  1.0000e+00
  1.0000e+00  1.0000e+00  1.0000e+00  1.0000e+00  1.0000e+00  1.0000e+00  1.0000e+00  1.0000e+00  1.0000e+00  1.0000e+00
  1.0000e+00  1.0000e+00  1.0000e+00  1.0000e+00  1.0000e+00  1.0000e+00  1.0000e+00  1.0000e+00  1.0000e+00
  1.0000e+00  1.0000e+00  1.0000e+00  1.0000e+00  1.0000e+00  1.0000e+00  1.0000e+00  1.0000e+00  1.0000e+00  1.0000e+00
  1.0000e+00  1.0000e+00  1.0000e+00  1.0000e+00  1.0000e+00  1.0000e+00  1.0000e+00  1.0000e+00  1.0000e+00  1.0000e+00
  1.0000e+00  1.0000e+00  1.0000e+00  1.0000e+00  1.0000e+00  1.0000e+00  1.0000e+00  1.0000e+00  1.0000e+00  1.0000e+00
  1.0000e+00  1.0000e+00  1.0000e+00  1.0000e+00  1.0000e+00  1.0000e+00  1.0000e+00  1.0000e+00  1.0000e+00  1.0000e+00
  1.0000e+00  1.0000e+00  1.0000e+00  1.0000e+00  1.0000e+00  1.0000e+00  1.0000e+00  1.0000e+00  1.0000e+00  1.0000e+00
  1.0000e+00  1.0000e+00  1.0000e+00  1.0000e+00  1.0000e+00  1.0000e+00  1.0000e+00  1.0000e+00  1.0000e+00  1.0000e+00
  1.0000e+00  1.0000e+00  1.0000e+00  1.0000e+00  1.0000e+00  1.0000e+00  1.0000e+00  1.0000e+00  1.0000e+00  1.0000e+00
  1.0000e+00  1.0000e+00  1.0000e+00  1.0000e+00  1.0000e+00  1.0000e+00  1.0000e+00  1.0000e+00  1.0000e+00
  1.0000e+00  1.0000e+00  1.0000e+00  1.0000e+00  1.0000e+00  1.0000e+00  1.0000e+00  1.0000e+00  1.0000e+00  1.0000e+00
  1.0000e+00  1.0000e+00  1.0000e+00  1.0000e+00  1.0000e+00  1.0000e+00  1.0000e+00  1.0000e+00  1.0000e+00  1.0000e+00
  1.0000e+00  1.0000e+00  1.0000e+00  1.0000e+00  1.0000e+00  1.0000e+00  1.0000e+00  1.0000e+00  1.0000e+00  1.0000e+00
  1.0000e+00  1.0000e+00  1.0000e+00  1.0000e+00  1.0000e+00  1.0000e+00  1.0000e+00  1.0000e+00  1.0000e+00  1.0000e+00
  1.0000e+00  1.0000e+00  1.0000e+00  1.0000e+00  1.0000e+00  1.0000e+00  1.0000e+00  1.0000e+00  1.0000e+00  1.0000e+00
  1.0000e+00  1.0000e+00  1.0000e+00  1.0000e+00  1.0000e+00  1.0000e+00  1.0000e+00  1.0000e+00  1.0000e+00  1.0000e+00
  1.0000e+00  1.0000e+00  1.0000e+00  1.0000e+00  1.0000e+00  1.0000e+00  1.0000e+00  1.0000e+00  1.0000e+00  1.0000e+00
  1.0000e+00  1.0000e+00  1.0000e+00  1.0000e+00  1.0000e+00  1.0000e+00  1.0000e+00  1.0000e+00  1.0000e+00
  1.0000e+00  1.0000e+00  1.0000e+00  1.0000e+00  1.0000e+00  1.0000e+00  1.0000e+00  1.0000e+00  1.0000e+00  1.0000e+00
  1.0000e+00  1.0000e+00  1.0000e+00  1.0000e+00  1.0000e+00  1.0000e+00  1.0000e+00  1.0000e+00  1.0000e+00  1.0000e+00
  1.0000e+00  1.0000e+00  1.0000e+00  1.0000e+00  1.0000e+00  1.0000e+00  1.0000e+00  1.0000e+00  1.0000e+00  1.0000e+00
  1.0000e+00  1.0000e+00  1.0000e+00  1.0000e+00  1.0000e+00  1.0000e+00  1.0000e+00  1.0000e+00  1.0000e+00  1.0000e+00
  1.0000e+00  1.0000e+00  1.0000e+00  1.0000e+00  1.0000e+00  1.0000e+00  1.0000e+00  1.0000e+00  1.0000e+00  1.0000e+00
  1.0000e+00  1.0000e+00  1.0000e+00  1.0000e+00  1.0000e+00  1.0000e+00  1.0000e+00  1.0000e+00  1.0000e+00  1.0000e+00
  1.0000e+00  1.0000e+00  1.0000e+00  1.0000e+00  1.0000e+00  1.0000e+00  1.0000e+00  1.0000e+00  1.0000e+00  1.0000e+00
  1.0000e+00  1.0000e+00  1.0000e+00  1.0000e+00  1.0000e+00  1.0000e+00  1.0000e+00  1.0000e+00  1.0000e+00
  1.0000e+00  1.0000e+00  1.0000e+00  1.0000e+00  1.0000e+00  1.0000e+00  1.0000e+00  1.0000e+00  1.0000e+00  1.0000e+00
  1.0000e+00  1.0000e+00  1.0000e+00  1.0000e+00  1.0000e+00  1.0000e+00  1.0000e+00  1.0000e+00  1.0000e+00  1.0000e+00
  1.0000e+00  1.0000e+00  1.0000e+00  1.0000e+00  1.0000e+00  1.0000e+00  1.0000e+00  1.0000e+00  1.0000e+00  1.0000e+00
  1.0000e+00  1.0000e+00  1.0000e+00  1.0000e+00  1.0000e+00  1.0000e+00  1.0000e+00  1.0000e+00  1.0000e+00  1.0000e+00
  1.0000e+00  1.0000e+00  1.0000e+00  1.0000e+00  1.0000e+00  1.0000e+00  1.0000e+00  1.0000e+00  1.0000e+00  1.0000e+00
  1.0000e+00  1.0000e+00  1.0000e+00  1.0000e+00  1.0000e+00  1.0000e+00  1.0000e+00  1.0000e+00  1.0000e+00  1.0000e+00
  1.0000e+00  1.0000e+00  1.0000e+00  1.0000e+00  1.0000e+00  1.0000e+00  1.0000e+00  1.0000e+00  1.0000e+00  1.0000e+00
  1.0000e+00  1.0000e+00  1.0000e+00  1.0000e+00  1.0000e+00  1.0000e+00  1.0000e+00  1.0000e+00  1.0000e+00
  1.0000e+00  1.0000e+00  1.0000e+00  1.0000e+00  1.0000e+00  1.0000e+00  1.0000e+00  1.0000e+00  1.0000e+00  1.0000e+00
  1.0000e+00  1.0000e+00  1.0000e+00  1.0000e+00  1.0000e+00  1.0000e+00  1.0000e+00  1.0000e+00  1.0000e+00  1.0000e+00
  1.0000e+00  1.0000e+00  1.0000e+00  1.0000e+00  1.0000e+00  1.0000e+00  1.0000e+00  1.0000e+00  1.0000e+00  1.0000e+00
  1.0000e+00  1.0000e+00  1.0000e+00  1.0000e+00  1.0000e+00  1.0000e+00  1.0000e+00  1.0000e+00  1.0000e+00  1.0000e+00
  1.0000e+00  1.0000e+00  1.0000e+00  1.0000e+00  1.0000e+00  1.0000e+00  1.0000e+00  1.0000e+00  1.0000e+00  1.0000e+00
  1.0000e+00  1.0000e+00  1.0000e+00  1.0000e+00  1.0000e+00  1.0000e+00  1.0000e+00  1.0000e+00  1.0000e+00  1.0000e+00
  1.0000e+00  1.0000e+00  1.0000e+00  1.0000e+00  1.0000e+00  1.0000e+00  1.0000e+00  1.0000e+00  1.0000e+00  1.0000e+00
  1.0000e+00  1.0000e+00  1.0000e+00  1.0000e+00  1.0000e+00  1.0000e+00  1.0000e+00  1.0000e+00  1.0000e+00
  1.0000e+00  1.0000e+00  1.0000e+00  1.0000e+00  1.0000e+00  1.0000e+00  1.0000e+00  1.0000e+00  1.0000e+00  1.0000e+00
  1.0000e+00  1.0000e+00  1.0000e+00  1.0000e+00  1.0000e+00  1.0000e+00  1.0000e+00  1.0000e+00  1.0000e+00  1.0000e+00
  1.0000e+00  1.0000e+00  1.0000e+00  1.0000e+00  1.0000e+00  1.0000e+00  1.0000e+00  1.0000e+00  1.0000e+00  1.0000e+00
  1.0000e+00  1.0000e+00  1.0000e+00  1.0000e+00  1.0000e+00  1.0000e+00  1.0000e+00  1.0000e+00  1.0000e+00  1.0000e+00
  1.0000e+00  1.0000e+00  1.0000e+00  1.0000e+00  1.0000e+00  1.0000e+00  1.0000e+00  1.0000e+00  1.0000e+00  1.0000e+00
  1.0000e+00  1.0000e+00  1.0000e+00  1.0000e+00  1.0000e+00  1.0000e+00  1.0000e+00  1.0000e+00  1.0000e+00  1.0000e+00
  1.0000e+00  1.0000e+00  1.0000e+00  1.0000e+00  1.0000e+00  1.0000e+00  1.0000e+00  1.0000e+00  1.0000e+00  1.0000e+00
  1.0000e+00  1.0000e+00  1.0000e+00  1.0000e+00  1.0000e+00  1.0000e+00  1.0000e+00  1.0000e+00  1.0000e+00
  1.0000e+00  1.0000e+00  1.0000e+00  1.0000e+00  1.0000e+00  1.0000e+00  1.0000e+00  1.0000e+00  1.0000e+00  1.0000e+00
  1.0000e+00  1.0000e+00  1.0000e+00  1.0000e+00  1.0000e+00  1.0000e+00  1.0000e+00  1.0000e+00  1.0000e+00  1.0000e+00
  1.0000e+00  1.0000e+00  1.0000e+00  1.0000e+00  1.0000e+00  1.0000e+00  1.0000e+00  1.0000e+00  1.0000e+00  1.0000e+00
  1.0000e+00  1.0000e+00  1.0000e+00  1.0000e+00  1.0000e+00  1.0000e+00  1.0000e+00  1.0000e+00  1.0000e+00  1.0000e+00
  1.0000e+00  1.0000e+00  1.0000e+00  1.0000e+00  1.0000e+00  1.0000e+00  1.0000e+00  1.0000e+00  1.0000e+00  1.0000e+00
  1.0000e+00  1.0000e+00  1.0000e+00  1.0000e+00  1.0000e+00  1.0000e+00  1.0000e+00  1.0000e+00  1.0000e+00  1.0000e+00
  1.0000e+00  1.0000e+00  1.0000e+00  1.0000e+00  1.0000e+00  1.0000e+00  1.0000e+00  1.0000e+00  1.0000e+00  1.0000e+00
  1.0000e+00  1.0000e+00  1.0000e+00  1.0000e+00  1.0000e+00  1.0000e+00  1.0000e+00  1.0000e+00  1.0000e+00
  1.0000e+00  1.0000e+00  1.0000e+00  1.0000e+00  1.0000e+00  1.0000e+00  1.0000e+00  1.0000e+00  1.0000e+00  1.0000e+00
  1.0000e+00  1.0000e+00  1.0000e+00  1.0000e+00  1.0000e+00  1.0000e+00  1.0000e+00  1.0000e+00  1.0000e+00  1.0000e+00
  1.0000e+00  1.0000e+00  1.0000e+00  1.0000e+00  1.0000e+00  1.0000e+00  1.0000e+00  1.0000e+00  1.0000e+00  1.0000e+00
  1.0000e+00  1.0000e+00  1.0000e+00  1.0000e+00  1.0000e+00  1.0000e+00  1.0000e+00  1.0000e+00  1.0000e+00  1.0000e+00
  1.0000e+00  1.0000e+00  1.0000e+00  1.0000e+00  1.0000e+00  1.0000e+00  1.0000e+00  1.0000e+00  1.0000e+00  1.0000e+00
  1.0000e+00  1.0000e+00  1.0000e+00  1.0000e+00  1.0000e+00  1.0000e+00  1.0000e+00  1.0000e+00  1.0000e+00  1.0000e+00
  1.0000e+00  1.0000e+00  1.0000e+00  1.0000e+00  1.0000e+00  1.0000e+00  1.0000e+00  1.0000e+00  1.0000e+00  1.0000e+00
  1.0000e+00  1.0000e+00  1.0000e+00  1.0000e+00  1.0000e+00  1.0000e+00  1.0000e+00  1.0000e+00  1.0000e+00
  1.0000e+00  1.0000e+00  1.0000e+00  1.0000e+00  1.0000e+00  1.0000e+00  1.0000e+00  1.0000e+00  1.0000e+00  1.0000e+00
  1.0000e+00  1.0000e+00  1.0000e+00  1.0000e+00  1.0000e+00  1.0000e+00  1.0000e+00  1.0000e+00  1.0000e+00  1.0000e+00
  1.0000e+00  1.0000e+00  1.0000e+00  1.0000e+00  1.0000e+00  1.0000e+00  1.0000e+00  1.0000e+00  1.0000e+00  1.0000e+00
  1.0000e+00  1.0000e+00  1.0000e+00  1.0000e+00  1.0000e+00  1.0000e+00  1.0000e+00  1.0000e+00  1.0000e+00  1.0000e+00
  1.0000e+00  1.0000e+00  1.0000e+00  1.0000e+00  1.0000e+00  1.0000e+00  1.0000e+00  1.0000e+00  1.0000e+00  1.0000e+00
  1.0000e+00  1.0000e+00  1.0000e+00  1.0000e+00  1.0000e+00  1.0000e+00  1.0000e+00  1.0000e+00  1.0000e+00  1.0000e+00
  1.0000e+00  1.0000e+00  1.0000e+00  1.0000e+00  1.0000e+00  1.0000e+00  1.0000e+00  1.0000e+00  1.0000e+00  1.0000e+00
  1.0000e+00  1.0000e+00  1.0000e+00  1.0000e+00  1.0000e+00  1.0000e+00  1.0000e+00  1.0000e+00  1.0000e+00
  1.0000e+00  1.0000e+00  1.0000e+00  1.0000e+00  1.0000e+00  1.0000e+00  1.0000e+00  1.0000e+00  1.0000e+00  1.0000e+00
  1.0000e+00  1.0000e+00  1.0000e+00  1.0000e+00  1.0000e+00  1.0000e+00  1.0000e+00  1.0000e+00  1.0000e+00  1.0000e+00
  1.0000e+00  1.0000e+00  1.0000e+00  1.0000e+00  1.0000e+00  1.0000e+00  1.0000e+00  1.0000e+00  1.0000e+00  1.0000e+00
  1.0000e+00  1.0000e+00  1.0000e+00  1.0000e+00  1.0000e+00  1.0000e+00  1.0000e+00  1.0000e+00  1.0000e+00  1.0000e+00
  1.0000e+00  1.0000e+00  1.0000e+00  1.0000e+00  1.0000e+00  1.0000e+00  1.0000e+00  1.0000e+00  1.0000e+00  1.0000e+00
  1.0000e+00  1.0000e+00  1.0000e+00  1.0000e+00  1.0000e+00  1.0000e+00  1.0000e+00  1.0000e+00  1.0000e+00  1.0000e+00
  1.0000e+00  1.0000e+00  1.0000e+00  1.0000e+00  1.0000e+00  1.0000e+00  1.0000e+00  1.0000e+00  1.0000e+00  1.0000e+00
  1.0000e+00  1.0000e+00  1.0000e+00  1.0000e+00  1.0000e+00  1.0000e+00  1.0000e+00  1.0000e+00  1.0000e+00
  1.0000e+00  1.0000e+00  1.0000e+00  1.0000e+00  1.0000e+00  1.0000e+00  1.0000e+00  1.0000e+00  1.0000e+00  1.0000e+00
  1.0000e+00  1.0000e+00  1.0000e+00  1.0000e+00  1.0000e+00  1.0000e+00  1.0000e+00  1.0000e+00  1.0000e+00  1.0000e+00
  1.0000e+00  1.0000e+00  1.0000e+00  1.0000e+00  1.0000e+00  1.0000e+00  1.0000e+00  1.0000e+00  1.0000e+00  1.0000e+00
  1.0000e+00  1.0000e+00  1.0000e+00  1.0000e+00  1.0000e+00  1.0000e+00  1.0000e+00  1.0000e+00  1.0000e+00  1.0000e+00
  1.0000e+00  1.0000e+00  1.0000e+00  1.0000e+00  1.0000e+00  1.0000e+00  1.0000e+00  1.0000e+00  1.0000e+00  1.0000e+00
  1.0000e+00  1.0000e+00  1.0000e+00  1.0000e+00  1.0000e+00  1.0000e+00  1.0000e+00  1.0000e+00  1.0000e+00  1.0000e+00
  1.0000e+00  1.0000e+00  1.0000e+00  1.0000e+00  1.0000e+00  1.0000e+00  1.0000e+00  1.0000e+00  1.0000e+00  1.0000e+00
  1.0000e+00  1.0000e+00  1.0000e+00  1.0000e+00  1.0000e+00  1.0000e+00  1.0000e+00  1.0000e+00  1.0000e+00
  1.0000e+00  1.0000e+00  1.0000e+00  1.0000e+00  1.0000e+00  1.0000e+00  1.0000e+00  1.0000e+00  1.0000e+00  1.0000e+00
  1.0000e+00  1.0000e+00  1.0000e+00  1.0000e+00  1.0000e+00  1.0000e+00  1.0000e+00  1.0000e+00  1.0000e+00  1.0000e+00
  1.0000e+00  1.0000e+00  1.0000e+00  1.0000e+00  1.0000e+00  1.0000e+00  1.0000e+00  1.0000e+00  1.0000e+00  1.0000e+00
  1.0000e+00  1.0000e+00  1.0000e+00  1.0000e+00  1.0000e+00  1.0000e+00  1.0000e+00  1.0000e+00  1.0000e+00  1.0000e+00
  1.0000e+00  1.0000e+00  1.0000e+00  1.0000e+00  1.0000e+00  1.0000e+00  1.0000e+00  1.0000e+00  1.0000e+00  1.0000e+00
  1.0000e+00  1.0000e+00  1.0000e+00  1.0000e+00  1.0000e+00  1.0000e+00  1.0000e+00  1.0000e+00  1.0000e+00  1.0000e+00
  1.0000e+00  1.0000e+00  1.0000e+00  1.0000e+00  1.0000e+00  1.0000e+00  1.0000e+00  1.0000e+00  1.0000e+00  1.0000e+00
  1.0000e+00  1.0000e+00  1.0000e+00  1.0000e+00  1.0000e+00  1.0000e+00  1.0000e+00  1.0000e+00  1.0000e+00
  1.0000e+00  1.0000e+00  1.0000e+00  1.0000e+00  1.0000e+00  1.0000e+00  1.0000e+00  1.0000e+00  1.0000e+00  1.0000e+00
  1.0000e+00  1.0000e+00  1.0000e+00  1.0000e+00  1.0000e+00  1.0000e+00  1.0000e+00  1.0000e+00  1.0000e+00  1.0000e+00
  1.0000e+00  1.0000e+00  1.0000e+00  1.0000e+00  1.0000e+00  1.0000e+00  1.0000e+00  1.0000e+00  1.0000e+00  1.0000e+00
  1.0000e+00  1.0000e+00  1.0000e+00  1.0000e+00  1.0000e+00  1.0000e+00  1.0000e+00  1.0000e+00  1.0000e+00  1.0000e+00
  1.0000e+00  1.0000e+00  1.0000e+00  1.0000e+00  1.0000e+00  1.0000e+00  1.0000e+00  1.0000e+00  1.0000e+00  1.0000e+00
  1.0000e+00  1.0000e+00  1.0000e+00  1.0000e+00  1.0000e+00  1.0000e+00  1.0000e+00  1.0000e+00  1.0000e+00  1.0000e+00
  1.0000e+00  1.0000e+00  1.0000e+00  1.0000e+00  1.0000e+00  1.0000e+00  1.0000e+00  1.0000e+00  1.0000e+00  1.0000e+00
  1.0000e+00  1.0000e+00  1.0000e+00  1.0000e+00  1.0000e+00  1.0000e+00  1.0000e+00  1.0000e+00  1.0000e+00
  1.0000e+00  1.0000e+00  1.0000e+00  1.0000e+00  1.0000e+00  1.0000e+00  1.0000e+00  1.0000e+00  1.0000e+00  1.0000e+00
  1.0000e+00  1.0000e+00  1.0000e+00  1.0000e+00  1.0000e+00  1.0000e+00  1.0000e+00  1.0000e+00  1.0000e+00  1.0000e+00
  1.0000e+00  1.0000e+00  1.0000e+00  1.0000e+00  1.0000e+00  1.0000e+00  1.0000e+00  1.0000e+00  1.0000e+00  1.0000e+00
  1.0000e+00  1.0000e+00  1.0000e+00  1.0000e+00  1.0000e+00  1.0000e+00  1.0000e+00  1.0000e+00  1.0000e+00  1.0000e+00
  1.0000e+00  1.0000e+00  1.0000e+00  1.0000e+00  1.0000e+00  1.0000e+00  1.0000e+00  1.0000e+00  1.0000e+00  1.0000e+00
  1.0000e+00  1.0000e+00  1.0000e+00  1.0000e+00  1.0000e+00  1.0000e+00  1.0000e+00  1.0000e+00  1.0000e+00  1.0000e+00
  1.0000e+00  1.0000e+00  1.0000e+00  1.0000e+00  1.0000e+00  1.0000e+00  1.0000e+00  1.0000e+00  1.0000e+00  1.0000e+00
  1.0000e+00  1.0000e+00  1.0000e+00  1.0000e+00  1.0000e+00  1.0000e+00  1.0000e+00  1.0000e+00  1.0000e+00
  1.0000e+00  1.0000e+00  1.0000e+00  1.0000e+00  1.0000e+00  1.0000e+00  1.0000e+00  1.0000e+00  1.0000e+00  1.0000e+00
  1.0000e+00  1.0000e+00  1.0000e+00  1.0000e+00  1.0000e+00  1.0000e+00  1.0000e+00  1.0000e+00  1.0000e+00  1.0000e+00
  1.0000e+00  1.0000e+00  1.0000e+00  1.0000e+00  1.0000e+00  1.0000e+00  1.0000e+00  1.0000e+00  1.0000e+00  1.0000e+00
  1.0000e+00  1.0000e+00  1.0000e+00  1.0000e+00  1.0000e+00  1.0000e+00  1.0000e+00  1.0000e+00  1.0000e+00  1.0000e+00
  1.0000e+00  1.0000e+00  1.0000e+00  1.0000e+00  1.0000e+00  1.0000e+00  1.0000e+00  1.0000e+00  1.0000e+00  1.0000e+00
  1.0000e+00  1.0000e+00  1.0000e+00  1.0000e+00  1.0000e+00  1.0000e+00  1.0000e+00  1.0000e+00  1.0000e+00  1.0000e+00
  1.0000e+00  1.0000e+00  1.0000e+00  1.0000e+00  1.0000e+00  1.0000e+00  1.0000e+00  1.0000e+00  1.0000e+00  1.0000e+00
  1.0000e+00  1.0000e+00  1.0000e+00  1.0000e+00  1.0000e+00  1.0000e+00  1.0000e+00  1.0000e+00  1.0000e+00
  1.0000e+00  1.0000e+00  1.0000e+00  1.0000e+00  1.0000e+00  1.0000e+00  1.0000e+00  1.0000e+00  1.0000e+00  1.0000e+00
  1.0000e+00  1.0000e+00  1.0000e+00  1.0000e+00  1.0000e+00  1.0000e+00  1.0000e+00  1.0000e+00  1.0000e+00  1.0000e+00
  1.0000e+00  1.0000e+00  1.0000e+00  1.0000e+00  1.0000e+00  1.0000e+00  1.0000e+00  1.0000e+00  1.0000e+00  1.0000e+00
  1.0000e+00  1.0000e+00  1.0000e+00  1.0000e+00  1.0000e+00  1.0000e+00  1.0000e+00  1.0000e+00  1.0000e+00  1.0000e+00
  1.0000e+00  1.0000e+00  1.0000e+00  1.0000e+00  1.0000e+00  1.0000e+00  1.0000e+00  1.0000e+00  1.0000e+00  1.0000e+00
  1.0000e+00  1.0000e+00  1.0000e+00  1.0000e+00  1.0000e+00  1.0000e+00  1.0000e+00  1.0000e+00  1.0000e+00  1.0000e+00
  1.0000e+00  1.0000e+00  1.0000e+00  1.0000e+00  1.0000e+00  1.0000e+00  1.0000e+00  1.0000e+00  1.0000e+00  1.0000e+00
  1.0000e+00  1.0000e+00  1.0000e+00  1.0000e+00  1.0000e+00  1.0000e+00  1.0000e+00  1.0000e+00  1.0000e+00
  1.0000e+00  1.0000e+00  1.0000e+00  1.0000e+00  1.0000e+00  1.0000e+00  1.0000e+00  1.0000e+00  1.0000e+00  1.0000e+00
  1.0000e+00  1.0000e+00  1.0000e+00  1.0000e+00  1.0000e+00  1.0000e+00  1.0000e+00  1.0000e+00  1.0000e+00  1.0000e+00
  1.0000e+00  1.0000e+00  1.0000e+00  1.0000e+00  1.0000e+00  1.0000e+00  1.0000e+00  1.0000e+00  1.0000e+00  1.0000e+00
  1.0000e+00  1.0000e+00  1.0000e+00  1.0000e+00  1.0000e+00  1.0000e+00  1.0000e+00  1.0000e+00  1.0000e+00  1.0000e+00
  1.0000e+00  1.0000e+00  1.0000e+00  1.0000e+00  1.0000e+00  1.0000e+00  1.0000e+00  1.0000e+00  1.0000e+00  1.0000e+00
  1.0000e+00  1.0000e+00  1.0000e+00  1.0000e+00  1.0000e+00  1.0000e+00  1.0000e+00  1.0000e+00  1.0000e+00  1.0000e+00
  1.0000e+00  1.0000e+00  1.0000e+00  1.0000e+00  1.0000e+00  1.0000e+00  1.0000e+00  1.0000e+00  1.0000e+00  1.0000e+00
  1.0000e+00  1.0000e+00  1.0000e+00  1.0000e+00  1.0000e+00  1.0000e+00  1.0000e+00  1.0000e+00  1.0000e+00
  1.0000e+00  1.0000e+00  1.0000e+00  1.0000e+00  1.0000e+00  1.0000e+00  1.0000e+00  1.0000e+00  1.0000e+00  1.0000e+00
  1.0000e+00  1.0000e+00  1.0000e+00  1.0000e+00  1.0000e+00  1.0000e+00  1.0000e+00  1.0000e+00  1.0000e+00  1.0000e+00
  1.0000e+00  1.0000e+00  1.0000e+00  1.0000e+00  1.0000e+00  1.0000e+00  1.0000e+00  1.0000e+00  1.0000e+00  1.0000e+00
  1.0000e+00  1.0000e+00  1.0000e+00  1.0000e+00  1.0000e+00  1.0000e+00  1.0000e+00  1.0000e+00  1.0000e+00  1.0000e+00
  1.0000e+00  1.0000e+00  1.0000e+00  1.0000e+00  1.0000e+00  1.0000e+00  1.0000e+00  1.0000e+00  1.0000e+00  1.0000e+00
  1.0000e+00  1.0000e+00  1.0000e+00  1.0000e+00  1.0000e+00  1.0000e+00  1.0000e+00  1.0000e+00  1.0000e+00  1.0000e+00
  1.0000e+00  1.0000e+00  1.0000e+00  1.0000e+00  1.0000e+00  1.0000e+00  1.0000e+00  1.0000e+00  1.0000e+00  1.0000e+00
  1.0000e+00  1.0000e+00  1.0000e+00  1.0000e+00  1.0000e+00  1.0000e+00  1.0000e+00  1.0000e+00  1.0000e+00
  1.0000e+00  1.0000e+00  1.0000e+00  1.0000e+00  1.0000e+00  1.0000e+00  1.0000e+00  1.0000e+00  1.0000e+00  1.0000e+00
  1.0000e+00  1.0000e+00  1.0000e+00  1.0000e+00  1.0000e+00  1.0000e+00  1.0000e+00  1.0000e+00  1.0000e+00  1.0000e+00
  1.0000e+00  1.0000e+00  1.0000e+00  1.0000e+00  1.0000e+00  1.0000e+00  1.0000e+00  1.0000e+00  1.0000e+00  1.0000e+00
  1.0000e+00  1.0000e+00  1.0000e+00  1.0000e+00  1.0000e+00  1.0000e+00  1.0000e+00  1.0000e+00  1.0000e+00  1.0000e+00
  1.0000e+00  1.0000e+00  1.0000e+00  1.0000e+00  1.0000e+00  1.0000e+00  1.0000e+00  1.0000e+00  1.0000e+00  1.0000e+00
  1.0000e+00  1.0000e+00  1.0000e+00  1.0000e+00  1.0000e+00  1.0000e+00  1.0000e+00  1.0000e+00  1.0000e+00  1.0000e+00
  1.0000e+00  1.0000e+00  1.0000e+00  1.0000e+00  1.0000e+00  1.0000e+00  1.0000e+00  1.0000e+00  1.0000e+00  1.0000e+00
  1.0000e+00  1.0000e+00  1.0000e+00  1.0000e+00  1.0000e+00  1.0000e+00  1.0000e+00  1.0000e+00  1.0000e+00
  1.0000e+00  1.0000e+00  1.0000e+00  1.0000e+00  1.0000e+00  1.0000e+00  1.0000e+00  1.0000e+00  1.0000e+00  1.0000e+00
  1.0000e+00  1.0000e+00  1.0000e+00  1.0000e+00  1.0000e+00  1.0000e+00  1.0000e+00  1.0000e+00  1.0000e+00  1.0000e+00
  1.0000e+00  1.0000e+00  1.0000e+00  1.0000e+00  1.0000e+00  1.0000e+00  1.0000e+00  1.0000e+00  1.0000e+00  1.0000e+00
  1.0000e+00  1.0000e+00  1.0000e+00  1.0000e+00  1.0000e+00  1.0000e+00  1.0000e+00  1.0000e+00  1.0000e+00  1.0000e+00
  1.0000e+00  1.0000e+00  1.0000e+00  1.0000e+00  1.0000e+00  1.0000e+00  1.0000e+00  1.0000e+00  1.0000e+00  1.0000e+00
  1.0000e+00  1.0000e+00  1.0000e+00  1.0000e+00  1.0000e+00  1.0000e+00  1.0000e+00  1.0000e+00  1.0000e+00  1.0000e+00
  1.0000e+00  1.0000e+00  1.0000e+00  1.0000e+00  1.0000e+00  1.0000e+00  1.0000e+00  1.0000e+00  1.0000e+00  1.0000e+00
  1.0000e+00  1.0000e+00  1.0000e+00  1.0000e+00  1.0000e+00  1.0000e+00  1.0000e+00  1.0000e+00  1.0000e+00
  1.0000e+00  1.0000e+00  1.0000e+00  1.0000e+00  1.0000e+00  1.0000e+00  1.0000e+00  1.0000e+00  1.0000e+00  1.0000e+00
  1.0000e+00  1.0000e+00  1.0000e+00  1.0000e+00  1.0000e+00  1.0000e+00  1.0000e+00  1.0000e+00  1.0000e+00  1.0000e+00
  1.0000e+00  1.0000e+00  1.0000e+00  1.0000e+00  1.0000e+00  1.0000e+00  1.0000e+00  1.0000e+00  1.0000e+00  1.0000e+00
  1.0000e+00  1.0000e+00  1.0000e+00  1.0000e+00  1.0000e+00  1.0000e+00  1.0000e+00  1.0000e+00  1.0000e+00  1.0000e+00
  1.0000e+00  1.0000e+00  1.0000e+00  1.0000e+00  1.0000e+00  1.0000e+00  1.0000e+00  1.0000e+00  1.0000e+00  1.0000e+00
  1.0000e+00  1.0000e+00  1.0000e+00  1.0000e+00  1.0000e+00  1.0000e+00  1.0000e+00  1.0000e+00  1.0000e+00  1.0000e+00
  1.0000e+00  1.0000e+00  1.0000e+00  1.0000e+00  1.0000e+00  1.0000e+00  1.0000e+00  1.0000e+00  1.0000e+00  1.0000e+00
  1.0000e+00  1.0000e+00  1.0000e+00  1.0000e+00  1.0000e+00  1.0000e+00  1.0000e+00  1.0000e+00  1.0000e+00
  1.0000e+00  1.0000e+00  1.0000e+00  1.0000e+00  1.0000e+00  1.0000e+00  1.0000e+00  1.0000e+00  1.0000e+00  1.0000e+00
  1.0000e+00  1.0000e+00  1.0000e+00  1.0000e+00  1.0000e+00  1.0000e+00  1.0000e+00  1.0000e+00  1.0000e+00  1.0000e+00
  1.0000e+00  1.0000e+00  1.0000e+00  1.0000e+00  1.0000e+00  1.0000e+00  1.0000e+00  1.0000e+00  1.0000e+00  1.0000e+00
  1.0000e+00  1.0000e+00  1.0000e+00  1.0000e+00  1.0000e+00  1.0000e+00  1.0000e+00  1.0000e+00  1.0000e+00  1.0000e+00
  1.0000e+00  1.0000e+00  1.0000e+00  1.0000e+00  1.0000e+00  1.0000e+00  1.0000e+00  1.0000e+00  1.0000e+00  1.0000e+00
  1.0000e+00  1.0000e+00  1.0000e+00  1.0000e+00  1.0000e+00  1.0000e+00  1.0000e+00  1.0000e+00  1.0000e+00  1.0000e+00
  1.0000e+00  1.0000e+00  1.0000e+00  1.0000e+00  1.0000e+00  1.0000e+00  1.0000e+00  1.0000e+00  1.0000e+00  1.0000e+00
  1.0000e+00  1.0000e+00  1.0000e+00  1.0000e+00  1.0000e+00  1.0000e+00  1.0000e+00  1.0000e+00  1.0000e+00
  1.0000e+00  1.0000e+00  1.0000e+00  1.0000e+00  1.0000e+00  1.0000e+00  1.0000e+00  1.0000e+00  1.0000e+00  1.0000e+00
  1.0000e+00  1.0000e+00  1.0000e+00  1.0000e+00  1.0000e+00  1.0000e+00  1.0000e+00  1.0000e+00  1.0000e+00  1.0000e+00
  1.0000e+00  1.0000e+00  1.0000e+00  1.0000e+00  1.0000e+00  1.0000e+00  1.0000e+00  1.0000e+00  1.0000e+00  1.0000e+00
  1.0000e+00  1.0000e+00  1.0000e+00  1.0000e+00  1.0000e+00  1.0000e+00  1.0000e+00  1.0000e+00  1.0000e+00  1.0000e+00
  1.0000e+00  1.0000e+00  1.0000e+00  1.0000e+00  1.0000e+00  1.0000e+00  1.0000e+00  1.0000e+00  1.0000e+00  1.0000e+00
  1.0000e+00  1.0000e+00  1.0000e+00  1.0000e+00  1.0000e+00  1.0000e+00  1.0000e+00  1.0000e+00  1.0000e+00  1.0000e+00
  1.0000e+00  1.0000e+00  1.0000e+00  1.0000e+00  1.0000e+00  1.0000e+00  1.0000e+00  1.0000e+00  1.0000e+00  1.0000e+00
  1.0000e+00  1.0000e+00  1.0000e+00  1.0000e+00  1.0000e+00  1.0000e+00  1.0000e+00  1.0000e+00  1.0000e+00
  1.0000e+00  1.0000e+00  1.0000e+00  1.0000e+00  1.0000e+00  1.0000e+00  1.0000e+00  1.0000e+00  1.0000e+00  1.0000e+00
  1.0000e+00  1.0000e+00  1.0000e+00  1.0000e+00  1.0000e+00  1.0000e+00  1.0000e+00  1.0000e+00  1.0000e+00  1.0000e+00
  1.0000e+00  1.0000e+00  1.0000e+00  1.0000e+00  1.0000e+00  1.0000e+00  1.0000e+00  1.0000e+00  1.0000e+00  1.0000e+00
  1.0000e+00  1.0000e+00  1.0000e+00  1.0000e+00  1.0000e+00  1.0000e+00  1.0000e+00  1.0000e+00  1.0000e+00  1.0000e+00
  1.0000e+00  1.0000e+00  1.0000e+00  1.0000e+00  1.0000e+00  1.0000e+00  1.0000e+00  1.0000e+00  1.0000e+00  1.0000e+00
  1.0000e+00  1.0000e+00  1.0000e+00  1.0000e+00  1.0000e+00  1.0000e+00  1.0000e+00  1.0000e+00  1.0000e+00  1.0000e+00