# MODFLOW2000 Recharge Package
PARAMETER  0
         1         0
         1         0
         00.0000e+00(10e12.4)                   -1
