# File generated by Flopy version 3.3.7 on 03/07/2025 at 14:50:52.
BEGIN options
END options

BEGIN timing
  TDIS6  model_7layer.tdis
END timing

BEGIN models
  gwf6  model_7layer.nam  model_7layer
END models

BEGIN exchanges
END exchanges

BEGIN solutiongroup  1
  ims6  model_7layer.ims  model_7layer
END solutiongroup  1

