# File generated by Flopy version 3.3.7 on 03/07/2025 at 14:50:54.
BEGIN options
  SAVE_FLOWS
END options

BEGIN griddata
  icelltype
    CONSTANT  1
  k
    CONSTANT      10.00000000
END griddata

