# File generated by Flopy version 3.3.7 on 03/07/2025 at 14:50:52.
BEGIN options
  PRINT_OPTION  summary
END options

BEGIN nonlinear
  OUTER_HCLOSE  1.00000000E-06
END nonlinear

BEGIN linear
  INNER_HCLOSE  1.00000000E-06
END linear

