# File generated by Flopy version 3.3.7 on 03/07/2025 at 14:50:52.
BEGIN options
  SAVE_FLOWS
END options

BEGIN packages
  DIS6  model_7layer.dis  dis
  IC6  model_7layer.ic  ic
  NPF6  model_7layer.npf  npf
  STO6  model_7layer.sto  sto
END packages

