# File generated by Flopy version 3.3.7 on 03/07/2025 at 14:50:52.
BEGIN options
  TIME_UNITS  days
END options

BEGIN dimensions
  NPER  1
END dimensions

BEGIN perioddata
       1.00000000  1       1.00000000
END perioddata

