# File generated by Flopy version 3.3.7 on 03/07/2025 at 14:50:52.
BEGIN options
  LENGTH_UNITS  feet
  XORIGIN  2.94142800E+06
  YORIGIN  -2.60811000E+05
  ANGROT      40.00000000
END options

BEGIN dimensions
  NLAY  7
  NROW  151
  NCOL  79
END dimensions

BEGIN griddata
  delr
    CONSTANT     660.00000000
  delc
    CONSTANT     660.00000000
  top
    INTERNAL  FACTOR  1.0
      1000.00000000    1000.00000000    1000.00000000    1000.00000000    1000.00000000    1000.00000000    1000.00000000    1000.00000000    1000.00000000    1000.00000000    1000.00000000    1000.00000000    1000.00000000    1000.00000000    1000.00000000    1000.00000000    1000.00000000    1000.00000000    1000.00000000    1000.00000000    1000.00000000    1000.00000000    1000.00000000    1000.00000000    1000.00000000    1000.00000000    1000.00000000    1000.00000000    1000.00000000    1000.00000000    1000.00000000    1000.00000000    1000.00000000    1000.00000000    1000.00000000    1000.00000000    1000.00000000    1000.00000000    1000.00000000    1000.00000000    1000.00000000    1000.00000000    1000.00000000    1000.00000000    1000.00000000    1000.00000000    1000.00000000    1000.00000000    1000.00000000    1000.00000000    1000.00000000    1000.00000000    1000.00000000    1000.00000000    1000.00000000    1000.00000000    1000.00000000    1000.00000000    1000.00000000    1000.00000000    1000.00000000    1000.00000000    1000.00000000    1000.00000000    1000.00000000    1000.00000000    1000.00000000    1000.00000000    1000.00000000    1000.00000000    1000.00000000    1000.00000000    1000.00000000    1000.00000000    1000.00000000    1000.00000000    1000.00000000    1000.00000000    1000.00000000
      1000.00000000    1000.00000000    1000.00000000    1000.00000000    1000.00000000    1000.00000000    1000.00000000    1000.00000000    1000.00000000    1000.00000000    1000.00000000    1000.00000000    1000.00000000    1000.00000000    1000.00000000    1000.00000000    1000.00000000    1000.00000000    1000.00000000    1000.00000000    1000.00000000    1000.00000000    1000.00000000    1000.00000000    1000.00000000    1000.00000000    1000.00000000    1000.00000000    1000.00000000    1000.00000000    1000.00000000    1000.00000000    1000.00000000    1000.00000000    1000.00000000    1000.00000000    1000.00000000    1000.00000000    1000.00000000    1000.00000000    1000.00000000    1000.00000000    1000.00000000    1000.00000000    1000.00000000    1000.00000000    1000.00000000    1000.00000000    1000.00000000    1000.00000000    1000.00000000    1000.00000000    1000.00000000    1000.00000000    1000.00000000    1000.00000000    1000.00000000    1000.00000000    1000.00000000    1000.00000000    1000.00000000    1000.00000000    1000.00000000    1000.00000000    1000.00000000    1000.00000000    1000.00000000    1000.00000000    1000.00000000    1000.00000000    1000.00000000    1000.00000000    1000.00000000    1000.00000000    1000.00000000    1000.00000000    1000.00000000    1000.00000000    1000.00000000
      1000.00000000    1000.00000000    1000.00000000    1000.00000000    1000.00000000    1000.00000000    1000.00000000    1000.00000000    1000.00000000    1000.00000000    1000.00000000    1000.00000000    1000.00000000    1000.00000000    1000.00000000    1000.00000000    1000.00000000    1000.00000000    1000.00000000    1000.00000000    1000.00000000    1000.00000000    1000.00000000    1000.00000000    1000.00000000    1000.00000000    1000.00000000    1000.00000000    1000.00000000    1000.00000000    1000.00000000    1000.00000000    1000.00000000    1000.00000000    1000.00000000    1000.00000000    1000.00000000    1000.00000000    1000.00000000    1000.00000000    1000.00000000    1000.00000000    1000.00000000    1000.00000000    1000.00000000    1000.00000000    1000.00000000    1000.00000000    1000.00000000    1000.00000000    1000.00000000    1000.00000000    1000.00000000    1000.00000000    1000.00000000    1000.00000000    1000.00000000    1000.00000000    1000.00000000    1000.00000000    1000.00000000    1000.00000000    1000.00000000    1000.00000000    1000.00000000    1000.00000000    1000.00000000    1000.00000000    1000.00000000    1000.00000000    1000.00000000    1000.00000000    1000.00000000    1000.00000000    1000.00000000    1000.00000000    1000.00000000    1000.00000000    1000.00000000
      1000.00000000    1000.00000000    1000.00000000    1000.00000000    1000.00000000    1000.00000000    1000.00000000    1000.00000000    1000.00000000    1000.00000000    1000.00000000    1000.00000000    1000.00000000    1000.00000000    1000.00000000    1000.00000000    1000.00000000    1000.00000000    1000.00000000    1000.00000000    1000.00000000    1000.00000000    1000.00000000    1000.00000000    1000.00000000    1000.00000000    1000.00000000    1000.00000000    1000.00000000    1000.00000000    1000.00000000    1000.00000000    1000.00000000    1000.00000000    1000.00000000    1000.00000000    1000.00000000    1000.00000000    1000.00000000    1000.00000000    1000.00000000    1000.00000000    1000.00000000    1000.00000000    1000.00000000    1000.00000000    1000.00000000    1000.00000000    1000.00000000    1000.00000000    1000.00000000    1000.00000000    1000.00000000    1000.00000000    1000.00000000    1000.00000000    1000.00000000    1000.00000000    1000.00000000    1000.00000000    1000.00000000    1000.00000000    1000.00000000    1000.00000000    1000.00000000    1000.00000000    1000.00000000    1000.00000000    1000.00000000    1000.00000000    1000.00000000    1000.00000000    1000.00000000    1000.00000000    1000.00000000    1000.00000000    1000.00000000    1000.00000000    1000.00000000
      1000.00000000    1000.00000000    1000.00000000    1000.00000000    1000.00000000    1000.00000000    1000.00000000    1000.00000000    1000.00000000    1000.00000000    1000.00000000    1000.00000000    1000.00000000    1000.00000000    1000.00000000    1000.00000000    1000.00000000    1000.00000000    1000.00000000    1000.00000000    1000.00000000    1000.00000000    1000.00000000    1000.00000000    1000.00000000    1000.00000000    1000.00000000    1000.00000000    1000.00000000    1000.00000000    1000.00000000    1000.00000000    1000.00000000    1000.00000000    1000.00000000    1000.00000000    1000.00000000    1000.00000000    1000.00000000    1000.00000000    1000.00000000    1000.00000000    1000.00000000    1000.00000000    1000.00000000    1000.00000000    1000.00000000    1000.00000000    1000.00000000    1000.00000000    1000.00000000    1000.00000000    1000.00000000    1000.00000000    1000.00000000    1000.00000000    1000.00000000    1000.00000000    1000.00000000    1000.00000000    1000.00000000    1000.00000000    1000.00000000    1000.00000000    1000.00000000    1000.00000000    1000.00000000    1000.00000000    1000.00000000    1000.00000000    1000.00000000    1000.00000000    1000.00000000    1000.00000000    1000.00000000    1000.00000000    1000.00000000    1000.00000000    1000.00000000
      1000.00000000    1000.00000000    1000.00000000    1000.00000000    1000.00000000    1000.00000000    1000.00000000    1000.00000000    1000.00000000    1000.00000000    1000.00000000    1000.00000000    1000.00000000    1000.00000000    1000.00000000    1000.00000000    1000.00000000    1000.00000000    1000.00000000    1000.00000000    1000.00000000    1000.00000000    1000.00000000    1000.00000000    1000.00000000    1000.00000000    1000.00000000    1000.00000000    1000.00000000    1000.00000000    1000.00000000    1000.00000000    1000.00000000    1000.00000000    1000.00000000    1000.00000000    1000.00000000    1000.00000000    1000.00000000    1000.00000000    1000.00000000    1000.00000000    1000.00000000    1000.00000000    1000.00000000    1000.00000000    1000.00000000    1000.00000000    1000.00000000    1000.00000000    1000.00000000    1000.00000000    1000.00000000    1000.00000000    1000.00000000    1000.00000000    1000.00000000    1000.00000000    1000.00000000    1000.00000000    1000.00000000    1000.00000000    1000.00000000    1000.00000000    1000.00000000    1000.00000000    1000.00000000    1000.00000000    1000.00000000    1000.00000000    1000.00000000    1000.00000000    1000.00000000    1000.00000000    1000.00000000    1000.00000000    1000.00000000    1000.00000000    1000.00000000
      1000.00000000    1000.00000000    1000.00000000    1000.00000000    1000.00000000    1000.00000000    1000.00000000    1000.00000000    1000.00000000    1000.00000000    1000.00000000    1000.00000000    1000.00000000    1000.00000000    1000.00000000    1000.00000000    1000.00000000    1000.00000000    1000.00000000    1000.00000000    1000.00000000    1000.00000000    1000.00000000    1000.00000000    1000.00000000    1000.00000000    1000.00000000    1000.00000000    1000.00000000    1000.00000000    1000.00000000    1000.00000000    1000.00000000    1000.00000000    1000.00000000    1000.00000000    1000.00000000    1000.00000000    1000.00000000    1000.00000000    1000.00000000    1000.00000000    1000.00000000    1000.00000000    1000.00000000    1000.00000000    1000.00000000    1000.00000000    1000.00000000    1000.00000000    1000.00000000    1000.00000000    1000.00000000    1000.00000000    1000.00000000    1000.00000000    1000.00000000    1000.00000000    1000.00000000    1000.00000000    1000.00000000    1000.00000000    1000.00000000    1000.00000000    1000.00000000    1000.00000000    1000.00000000    1000.00000000    1000.00000000    1000.00000000    1000.00000000    1000.00000000    1000.00000000    1000.00000000    1000.00000000    1000.00000000    1000.00000000    1000.00000000    1000.00000000
      1000.00000000    1000.00000000    1000.00000000    1000.00000000    1000.00000000    1000.00000000    1000.00000000    1000.00000000    1000.00000000    1000.00000000    1000.00000000    1000.00000000    1000.00000000    1000.00000000    1000.00000000    1000.00000000    1000.00000000    1000.00000000    1000.00000000    1000.00000000    1000.00000000    1000.00000000    1000.00000000    1000.00000000    1000.00000000    1000.00000000    1000.00000000    1000.00000000    1000.00000000    1000.00000000    1000.00000000    1000.00000000    1000.00000000    1000.00000000    1000.00000000    1000.00000000    1000.00000000    1000.00000000    1000.00000000    1000.00000000    1000.00000000    1000.00000000    1000.00000000    1000.00000000    1000.00000000    1000.00000000    1000.00000000    1000.00000000    1000.00000000    1000.00000000    1000.00000000    1000.00000000    1000.00000000    1000.00000000    1000.00000000    1000.00000000    1000.00000000    1000.00000000    1000.00000000    1000.00000000    1000.00000000    1000.00000000    1000.00000000    1000.00000000    1000.00000000    1000.00000000    1000.00000000    1000.00000000    1000.00000000    1000.00000000    1000.00000000    1000.00000000    1000.00000000    1000.00000000    1000.00000000    1000.00000000    1000.00000000    1000.00000000    1000.00000000
      1000.00000000    1000.00000000    1000.00000000    1000.00000000    1000.00000000    1000.00000000    1000.00000000    1000.00000000    1000.00000000    1000.00000000    1000.00000000    1000.00000000    1000.00000000    1000.00000000    1000.00000000    1000.00000000    1000.00000000    1000.00000000    1000.00000000    1000.00000000    1000.00000000    1000.00000000    1000.00000000    1000.00000000    1000.00000000    1000.00000000    1000.00000000    1000.00000000    1000.00000000    1000.00000000    1000.00000000    1000.00000000    1000.00000000    1000.00000000    1000.00000000    1000.00000000    1000.00000000    1000.00000000    1000.00000000    1000.00000000    1000.00000000    1000.00000000    1000.00000000    1000.00000000    1000.00000000    1000.00000000    1000.00000000    1000.00000000    1000.00000000    1000.00000000    1000.00000000    1000.00000000    1000.00000000    1000.00000000    1000.00000000    1000.00000000    1000.00000000    1000.00000000    1000.00000000    1000.00000000    1000.00000000    1000.00000000    1000.00000000    1000.00000000    1000.00000000    1000.00000000    1000.00000000    1000.00000000    1000.00000000    1000.00000000    1000.00000000    1000.00000000    1000.00000000    1000.00000000    1000.00000000    1000.00000000    1000.00000000    1000.00000000    1000.00000000
      1000.00000000    1000.00000000    1000.00000000    1000.00000000    1000.00000000    1000.00000000    1000.00000000    1000.00000000    1000.00000000    1000.00000000    1000.00000000    1000.00000000    1000.00000000    1000.00000000    1000.00000000    1000.00000000    1000.00000000    1000.00000000    1000.00000000    1000.00000000    1000.00000000    1000.00000000    1000.00000000    1000.00000000    1000.00000000    1000.00000000    1000.00000000    1000.00000000    1000.00000000    1000.00000000    1000.00000000    1000.00000000    1000.00000000    1000.00000000    1000.00000000    1000.00000000    1000.00000000    1000.00000000    1000.00000000    1000.00000000    1000.00000000    1000.00000000    1000.00000000    1000.00000000    1000.00000000    1000.00000000    1000.00000000    1000.00000000    1000.00000000    1000.00000000    1000.00000000    1000.00000000    1000.00000000    1000.00000000    1000.00000000    1000.00000000    1000.00000000    1000.00000000    1000.00000000    1000.00000000    1000.00000000    1000.00000000    1000.00000000    1000.00000000    1000.00000000    1000.00000000    1000.00000000    1000.00000000    1000.00000000    1000.00000000    1000.00000000    1000.00000000    1000.00000000    1000.00000000    1000.00000000    1000.00000000    1000.00000000    1000.00000000    1000.00000000
      1000.00000000    1000.00000000    1000.00000000    1000.00000000    1000.00000000    1000.00000000    1000.00000000    1000.00000000    1000.00000000    1000.00000000    1000.00000000    1000.00000000    1000.00000000    1000.00000000    1000.00000000    1000.00000000    1000.00000000    1000.00000000    1000.00000000    1000.00000000    1000.00000000    1000.00000000    1000.00000000    1000.00000000    1000.00000000    1000.00000000    1000.00000000    1000.00000000    1000.00000000    1000.00000000    1000.00000000    1000.00000000    1000.00000000    1000.00000000    1000.00000000    1000.00000000    1000.00000000    1000.00000000    1000.00000000    1000.00000000    1000.00000000    1000.00000000    1000.00000000    1000.00000000    1000.00000000    1000.00000000    1000.00000000    1000.00000000    1000.00000000    1000.00000000    1000.00000000    1000.00000000    1000.00000000    1000.00000000    1000.00000000    1000.00000000    1000.00000000    1000.00000000    1000.00000000    1000.00000000    1000.00000000    1000.00000000    1000.00000000    1000.00000000    1000.00000000    1000.00000000    1000.00000000    1000.00000000    1000.00000000    1000.00000000    1000.00000000    1000.00000000    1000.00000000    1000.00000000    1000.00000000    1000.00000000    1000.00000000    1000.00000000    1000.00000000
      1000.00000000    1000.00000000    1000.00000000    1000.00000000    1000.00000000    1000.00000000    1000.00000000    1000.00000000    1000.00000000    1000.00000000    1000.00000000    1000.00000000    1000.00000000    1000.00000000    1000.00000000    1000.00000000    1000.00000000    1000.00000000    1000.00000000    1000.00000000    1000.00000000    1000.00000000    1000.00000000    1000.00000000    1000.00000000    1000.00000000    1000.00000000    1000.00000000    1000.00000000    1000.00000000    1000.00000000    1000.00000000    1000.00000000    1000.00000000    1000.00000000    1000.00000000    1000.00000000    1000.00000000    1000.00000000    1000.00000000    1000.00000000    1000.00000000    1000.00000000    1000.00000000    1000.00000000    1000.00000000    1000.00000000    1000.00000000    1000.00000000    1000.00000000    1000.00000000    1000.00000000    1000.00000000    1000.00000000    1000.00000000    1000.00000000    1000.00000000    1000.00000000    1000.00000000    1000.00000000    1000.00000000    1000.00000000    1000.00000000    1000.00000000    1000.00000000    1000.00000000    1000.00000000    1000.00000000    1000.00000000    1000.00000000    1000.00000000    1000.00000000    1000.00000000    1000.00000000    1000.00000000    1000.00000000    1000.00000000    1000.00000000    1000.00000000
      1000.00000000    1000.00000000    1000.00000000    1000.00000000    1000.00000000    1000.00000000    1000.00000000    1000.00000000    1000.00000000    1000.00000000    1000.00000000    1000.00000000    1000.00000000    1000.00000000    1000.00000000    1000.00000000    1000.00000000    1000.00000000    1000.00000000    1000.00000000    1000.00000000    1000.00000000    1000.00000000    1000.00000000    1000.00000000    1000.00000000    1000.00000000    1000.00000000    1000.00000000    1000.00000000    1000.00000000    1000.00000000    1000.00000000    1000.00000000    1000.00000000    1000.00000000    1000.00000000    1000.00000000    1000.00000000    1000.00000000    1000.00000000    1000.00000000    1000.00000000    1000.00000000    1000.00000000    1000.00000000    1000.00000000    1000.00000000    1000.00000000    1000.00000000    1000.00000000    1000.00000000    1000.00000000    1000.00000000    1000.00000000    1000.00000000    1000.00000000    1000.00000000    1000.00000000    1000.00000000    1000.00000000    1000.00000000    1000.00000000    1000.00000000    1000.00000000    1000.00000000    1000.00000000    1000.00000000    1000.00000000    1000.00000000    1000.00000000    1000.00000000    1000.00000000    1000.00000000    1000.00000000    1000.00000000    1000.00000000    1000.00000000    1000.00000000
      1000.00000000    1000.00000000    1000.00000000    1000.00000000    1000.00000000    1000.00000000    1000.00000000    1000.00000000    1000.00000000    1000.00000000    1000.00000000    1000.00000000    1000.00000000    1000.00000000    1000.00000000    1000.00000000    1000.00000000    1000.00000000    1000.00000000    1000.00000000    1000.00000000    1000.00000000    1000.00000000    1000.00000000    1000.00000000    1000.00000000    1000.00000000    1000.00000000    1000.00000000    1000.00000000    1000.00000000    1000.00000000    1000.00000000    1000.00000000    1000.00000000    1000.00000000    1000.00000000    1000.00000000    1000.00000000    1000.00000000    1000.00000000    1000.00000000    1000.00000000    1000.00000000    1000.00000000    1000.00000000    1000.00000000    1000.00000000    1000.00000000    1000.00000000    1000.00000000    1000.00000000    1000.00000000    1000.00000000    1000.00000000    1000.00000000    1000.00000000    1000.00000000    1000.00000000    1000.00000000    1000.00000000    1000.00000000    1000.00000000    1000.00000000    1000.00000000    1000.00000000    1000.00000000    1000.00000000    1000.00000000    1000.00000000    1000.00000000    1000.00000000    1000.00000000    1000.00000000    1000.00000000    1000.00000000    1000.00000000    1000.00000000    1000.00000000
      1000.00000000    1000.00000000    1000.00000000    1000.00000000    1000.00000000    1000.00000000    1000.00000000    1000.00000000    1000.00000000    1000.00000000    1000.00000000    1000.00000000    1000.00000000    1000.00000000    1000.00000000    1000.00000000    1000.00000000    1000.00000000    1000.00000000    1000.00000000    1000.00000000    1000.00000000    1000.00000000    1000.00000000    1000.00000000    1000.00000000    1000.00000000    1000.00000000    1000.00000000    1000.00000000    1000.00000000    1000.00000000    1000.00000000    1000.00000000    1000.00000000    1000.00000000    1000.00000000    1000.00000000    1000.00000000    1000.00000000    1000.00000000    1000.00000000    1000.00000000    1000.00000000    1000.00000000    1000.00000000    1000.00000000    1000.00000000    1000.00000000    1000.00000000    1000.00000000    1000.00000000    1000.00000000    1000.00000000    1000.00000000    1000.00000000    1000.00000000    1000.00000000    1000.00000000    1000.00000000    1000.00000000    1000.00000000    1000.00000000    1000.00000000    1000.00000000    1000.00000000    1000.00000000    1000.00000000    1000.00000000    1000.00000000    1000.00000000    1000.00000000    1000.00000000    1000.00000000    1000.00000000    1000.00000000    1000.00000000    1000.00000000    1000.00000000
      1000.00000000    1000.00000000    1000.00000000    1000.00000000    1000.00000000    1000.00000000    1000.00000000    1000.00000000    1000.00000000    1000.00000000    1000.00000000    1000.00000000    1000.00000000    1000.00000000    1000.00000000    1000.00000000    1000.00000000    1000.00000000    1000.00000000    1000.00000000    1000.00000000    1000.00000000    1000.00000000    1000.00000000    1000.00000000    1000.00000000    1000.00000000    1000.00000000    1000.00000000    1000.00000000    1000.00000000    1000.00000000    1000.00000000    1000.00000000    1000.00000000    1000.00000000    1000.00000000    1000.00000000    1000.00000000    1000.00000000    1000.00000000    1000.00000000    1000.00000000    1000.00000000    1000.00000000    1000.00000000    1000.00000000    1000.00000000    1000.00000000    1000.00000000    1000.00000000    1000.00000000    1000.00000000    1000.00000000    1000.00000000    1000.00000000    1000.00000000    1000.00000000    1000.00000000    1000.00000000    1000.00000000    1000.00000000    1000.00000000    1000.00000000    1000.00000000    1000.00000000    1000.00000000    1000.00000000    1000.00000000    1000.00000000    1000.00000000    1000.00000000    1000.00000000    1000.00000000    1000.00000000    1000.00000000    1000.00000000    1000.00000000    1000.00000000
      1000.00000000    1000.00000000    1000.00000000    1000.00000000    1000.00000000    1000.00000000    1000.00000000    1000.00000000    1000.00000000    1000.00000000    1000.00000000    1000.00000000    1000.00000000    1000.00000000    1000.00000000    1000.00000000    1000.00000000    1000.00000000    1000.00000000    1000.00000000    1000.00000000    1000.00000000    1000.00000000    1000.00000000    1000.00000000    1000.00000000    1000.00000000    1000.00000000    1000.00000000    1000.00000000    1000.00000000    1000.00000000    1000.00000000    1000.00000000    1000.00000000    1000.00000000    1000.00000000    1000.00000000    1000.00000000    1000.00000000    1000.00000000    1000.00000000    1000.00000000    1000.00000000    1000.00000000    1000.00000000    1000.00000000    1000.00000000    1000.00000000    1000.00000000    1000.00000000    1000.00000000    1000.00000000    1000.00000000    1000.00000000    1000.00000000    1000.00000000    1000.00000000    1000.00000000    1000.00000000    1000.00000000    1000.00000000    1000.00000000    1000.00000000    1000.00000000    1000.00000000    1000.00000000    1000.00000000    1000.00000000    1000.00000000    1000.00000000    1000.00000000    1000.00000000    1000.00000000    1000.00000000    1000.00000000    1000.00000000    1000.00000000    1000.00000000
      1000.00000000    1000.00000000    1000.00000000    1000.00000000    1000.00000000    1000.00000000    1000.00000000    1000.00000000    1000.00000000    1000.00000000    1000.00000000    1000.00000000    1000.00000000    1000.00000000    1000.00000000    1000.00000000    1000.00000000    1000.00000000    1000.00000000    1000.00000000    1000.00000000    1000.00000000    1000.00000000    1000.00000000    1000.00000000    1000.00000000    1000.00000000    1000.00000000    1000.00000000    1000.00000000    1000.00000000    1000.00000000    1000.00000000    1000.00000000    1000.00000000    1000.00000000    1000.00000000    1000.00000000    1000.00000000    1000.00000000    1000.00000000    1000.00000000    1000.00000000    1000.00000000    1000.00000000    1000.00000000    1000.00000000    1000.00000000    1000.00000000    1000.00000000    1000.00000000    1000.00000000    1000.00000000    1000.00000000    1000.00000000    1000.00000000    1000.00000000    1000.00000000    1000.00000000    1000.00000000    1000.00000000    1000.00000000    1000.00000000    1000.00000000    1000.00000000    1000.00000000    1000.00000000    1000.00000000    1000.00000000    1000.00000000    1000.00000000    1000.00000000    1000.00000000    1000.00000000    1000.00000000    1000.00000000    1000.00000000    1000.00000000    1000.00000000
      1000.00000000    1000.00000000    1000.00000000    1000.00000000    1000.00000000    1000.00000000    1000.00000000    1000.00000000    1000.00000000    1000.00000000    1000.00000000    1000.00000000    1000.00000000    1000.00000000    1000.00000000    1000.00000000    1000.00000000    1000.00000000    1000.00000000    1000.00000000    1000.00000000    1000.00000000    1000.00000000    1000.00000000    1000.00000000    1000.00000000    1000.00000000    1000.00000000    1000.00000000    1000.00000000    1000.00000000    1000.00000000    1000.00000000    1000.00000000    1000.00000000    1000.00000000    1000.00000000    1000.00000000    1000.00000000    1000.00000000    1000.00000000    1000.00000000    1000.00000000    1000.00000000    1000.00000000    1000.00000000    1000.00000000    1000.00000000    1000.00000000    1000.00000000    1000.00000000    1000.00000000    1000.00000000    1000.00000000    1000.00000000    1000.00000000    1000.00000000    1000.00000000    1000.00000000    1000.00000000    1000.00000000    1000.00000000    1000.00000000    1000.00000000    1000.00000000    1000.00000000    1000.00000000    1000.00000000    1000.00000000    1000.00000000    1000.00000000    1000.00000000    1000.00000000    1000.00000000    1000.00000000    1000.00000000    1000.00000000    1000.00000000    1000.00000000
      1000.00000000    1000.00000000    1000.00000000    1000.00000000    1000.00000000    1000.00000000    1000.00000000    1000.00000000    1000.00000000    1000.00000000    1000.00000000    1000.00000000    1000.00000000    1000.00000000    1000.00000000    1000.00000000    1000.00000000    1000.00000000    1000.00000000    1000.00000000    1000.00000000    1000.00000000    1000.00000000    1000.00000000    1000.00000000    1000.00000000    1000.00000000    1000.00000000    1000.00000000    1000.00000000    1000.00000000    1000.00000000    1000.00000000    1000.00000000    1000.00000000    1000.00000000    1000.00000000    1000.00000000    1000.00000000    1000.00000000    1000.00000000    1000.00000000    1000.00000000    1000.00000000    1000.00000000    1000.00000000    1000.00000000    1000.00000000    1000.00000000    1000.00000000    1000.00000000    1000.00000000    1000.00000000    1000.00000000    1000.00000000    1000.00000000    1000.00000000    1000.00000000    1000.00000000    1000.00000000    1000.00000000    1000.00000000    1000.00000000    1000.00000000    1000.00000000    1000.00000000    1000.00000000    1000.00000000    1000.00000000    1000.00000000    1000.00000000    1000.00000000    1000.00000000    1000.00000000    1000.00000000    1000.00000000    1000.00000000    1000.00000000    1000.00000000
      1000.00000000    1000.00000000    1000.00000000    1000.00000000    1000.00000000    1000.00000000    1000.00000000    1000.00000000    1000.00000000    1000.00000000    1000.00000000    1000.00000000    1000.00000000    1000.00000000    1000.00000000    1000.00000000    1000.00000000    1000.00000000    1000.00000000    1000.00000000    1000.00000000    1000.00000000    1000.00000000    1000.00000000    1000.00000000    1000.00000000    1000.00000000    1000.00000000    1000.00000000    1000.00000000    1000.00000000    1000.00000000    1000.00000000    1000.00000000    1000.00000000    1000.00000000    1000.00000000    1000.00000000    1000.00000000    1000.00000000    1000.00000000    1000.00000000    1000.00000000    1000.00000000    1000.00000000    1000.00000000    1000.00000000    1000.00000000    1000.00000000    1000.00000000    1000.00000000    1000.00000000    1000.00000000    1000.00000000    1000.00000000    1000.00000000    1000.00000000    1000.00000000    1000.00000000    1000.00000000    1000.00000000    1000.00000000    1000.00000000    1000.00000000    1000.00000000    1000.00000000    1000.00000000    1000.00000000    1000.00000000    1000.00000000    1000.00000000    1000.00000000    1000.00000000    1000.00000000    1000.00000000    1000.00000000    1000.00000000    1000.00000000    1000.00000000
      1000.00000000    1000.00000000    1000.00000000    1000.00000000    1000.00000000    1000.00000000    1000.00000000    1000.00000000    1000.00000000    1000.00000000    1000.00000000    1000.00000000    1000.00000000    1000.00000000    1000.00000000    1000.00000000    1000.00000000    1000.00000000    1000.00000000    1000.00000000    1000.00000000    1000.00000000    1000.00000000    1000.00000000    1000.00000000    1000.00000000    1000.00000000    1000.00000000    1000.00000000    1000.00000000    1000.00000000    1000.00000000    1000.00000000    1000.00000000    1000.00000000    1000.00000000    1000.00000000    1000.00000000    1000.00000000    1000.00000000    1000.00000000    1000.00000000    1000.00000000    1000.00000000    1000.00000000    1000.00000000    1000.00000000    1000.00000000    1000.00000000    1000.00000000    1000.00000000    1000.00000000    1000.00000000    1000.00000000    1000.00000000    1000.00000000    1000.00000000    1000.00000000    1000.00000000    1000.00000000    1000.00000000    1000.00000000    1000.00000000    1000.00000000    1000.00000000    1000.00000000    1000.00000000    1000.00000000    1000.00000000    1000.00000000    1000.00000000    1000.00000000    1000.00000000    1000.00000000    1000.00000000    1000.00000000    1000.00000000    1000.00000000    1000.00000000