# MODFLOW2000 Well Package
         5         0
         5         0
         4       115        47-6234.2832
         4       114        47-40475.301
         4       117        48-59543.594
         4       111        45-47391.832
         4       131        47-44424.121
